Using: /usr/bin/time -p /usr/cad/synopsys/hspice/cur/hspice/linux/hspice iEnB.sp
 ****** HSPICE -- B-2008.09-SP1 32-BIT (Nov 24 2008) linux ******               
  Copyright (C) 2008 Synopsys, Inc. All Rights Reserved.                        
  Unpublished-rights reserved under US copyright laws.
  This program is protected by law and is subject to the 
  terms and conditions of the license agreement from Synopsys.
  Use of this program is your acceptance to be bound by the 
  license agreement. HSPICE is the trademark of Synopsys, Inc.
  Input File: iEnB.sp                                                           
 lic:  
 lic: FLEXlm: v8.5b 
 lic: USER:   m103061608           HOSTNAME: ws43 
 lic: HOSTID: 5cf3fcb5e0d8         PID:      10036 
 lic: Using FLEXlm license file: 
 lic: 26585@lsnctu 
 lic: Checkout 1 hspice 
 lic: License/Maintenance for hspice will expire on 14-may-2016/2015.06 
 lic: FLOATING license(s) on SERVER lsnctu 
 lic:   
 Init: read install configuration file: /usr/cad/synopsys/hspice/cur/hspice/meta.cfg
 Init: hspice initialization file: /usr/cad/synopsys/hspice/cur/hspice/hspice.ini
 .option runlvl
 .option post acout=0 accurate=1 dcon=1 converge=1 gmindc=1.0000e-12 captab=1 unwrap=1
 + ingold=2

 ***op include***


 ******netlist***
 .subckt op vdd vss vinn vinp cp cn vop
 mb	b	cp	vdd	vdd	pch	w = 31u  l = 1u	  m = 2
 m1	1	vinn	b		b		pch	w = 10u l = 0.4u m = 1
 m2	2	vinp	b		b		pch	w = 10u l = 0.4u m = 1
 m3	1	cn		vss	vss	nch	w = 4.2u l = 0.4u m = 2
 m4	2	cn		vss	vss	nch	w = 4.2u l = 0.4u m = 2

 m1pa	voa	voa	vdd	vdd	pch	w = 4u l = 0.4u    m = 2
 m1pb	von	von	voa	voa	pch	w = 4u l = 0.4u    m = 2
 m2pa	vo2	voa	vdd	vdd	pch	w = 4u l = 0.4u    m = 2
 m2pb	vop	von	vo2 vo2	pch	w = 4u l = 0.4u    m = 2
 m3n	    von	1   vss vss nch w = 15u   l = 0.4u    m = 2
 m4n	    vop	2   vss vss nch w = 15u   l = 0.4u    m = 2

 ******compensation***
 cvonvop zon vop 1p
 *vvb zb gnd dc = 2
 *mz1 zon zb von von pch w = 1u l = 1u
 rz zon von 100k
 .ends

 ******current mirror***
 ic  cp vss dc = 500n
 mc0 cp cp vdd vdd pch w = 5u l = 0.4u m = 7
 mc1 c0 cp vdd vdd pch w = 5u l = 0.4u m = 2
 mc2 cn cn c0  c0  pch w = 1u l = 0.4u m = 1
 mc3 cn cn vss vss nch w = 5.1u l = 0.4u m = 3

 xop1 vdd vss vinn vinp cp cn vop op
 *ei vop gnd opamp vinp vinn 100
 ******optest_open***
 vinp vinp gnd dc = 'comon-diff' *ac = 1
 vinn vinn gnd dc = 'comon+diff' *ac = 1 *180
 .param
 +comon		= 1.7
 +diff		= 0
 ********************
 ********************

 ***enlargement mos***
 *******pinput*******
 *me1 vinp vop vdd vdd pch w = 5u l = 0.4u
 *me2 vout vop vdd vdd pch w = 5u l = 0.4u m = 100
 *me1b vinp eb vss vss nch w = 2u l = 0.4u            *decide by noise:
 *me2b vout eb vss vss nch w = 2u l = 0.4u m = 100    *id ~45n, in~0.8n
 *veb eb gnd dc = 0.6
 *******ninput*******
 me1b vinp eb vdd vdd pch w = 8u l = 0.4u
 me2b vout eb vdd vdd pch w = 8u l = 0.4u m = 100
 me1 vinp vop vss vss nch w = 2u l = 0.4u            *decide by noise:
 me2 vout vop vss vss nch w = 2u l = 0.4u m = 100    *id ~45n, in~0.8n
 veb eb gnd dc = '3.3-0.7'
 ***

 ***input***
 *******source input*******
 iin vinp vdd dc = 10n  ac = 1  sin(1u 10n 1k 1ns)
 *iin vdd vinp dc = 100n  ac = 1  sin(1u 10n 1k 1ns)
 *******mos input*******

 ***output***
 ******e element***
 *eo vout gnd opamp ref vout
 *vr ref gnd dc = 1.7
 *.probe dc i(eo)

 ******op by design***
 xop2 vdd vss vop2 vinp2 cp cn vop2 op
 vinp2 vinp2 gnd dc = 1.7
 ro vout vop2 0
 .probe dc i(ro)

 ***
 ***source***
 vd		vdd 	gnd dc supplyp
 vs		vss 	gnd dc supplyn
 .param
 +supplyp	= 3.3
 +supplyn	= 0

 ***test***
 mt  vdt vgt vst vst pch w = 5u l = 0.4u
 it  vdd vst dc = 1u
 vtg vgt gnd dc = 2v
 vtd vdt gnd dc = 1v

 .op

 ******iinput*******
 .dc iin dec 100 1n 10u
 *.dc it dec 100 1n 1u
 *.probe dc i(me1) i(me2)
 *+lx3(me1) lx3(me2) lx7(me1) lx7(me2)
 *+i(xop1.m4n)
 .print zin=par('v(vinp)/i(iin)') id=par('i(iin)')

 ******input impedance******
 *.dc vinp 0 3.3 0.01
 *.print dc zin=par('v(vinp)/i(vinp)') i(vinp)

 ******ac*******
 *.ac dec 100 1 1g
 *.noise i(ro) iin

 ******trans******
 *.tran 100ns 2ms
 *.probe tran i(me1) i(me2)
 .end


 **warning**  the accurate option increases  the cpu time but the results
                are more accurate.
 ***accurate option sets default value of the options: 
 lvltim= 4         dvdt= 3       relvar= 200.00m absvar= 200.00m
     ft= 200.00m relmos=  10.00m
 (used for FFT control ) fft_accurate= 1
1****** HSPICE -- B-2008.09-SP1 32-BIT (Nov 24 2008) linux ******               
 ******  
 *current enlargge: use an op and two mos of current mirror

  ******  circuit name directory
 circuit number to circuit name directory
   number circuitname                     definition         multiplier
        0 main circuit
        1 xop1.                           op                 1.00 
        2 xop2.                           op                 1.00 
 **warning**     0:ro              defined in subckt 0                resistance limited to   1.000E-05

 

 
      
  Opening plot unit= 15
 file=iEnB.pa0                                                                 

 ******  
 *current enlargge: use an op and two mos of current mirror

  ******  dc transfer curves tnom=  25.000 temp=  25.000 *****
x

        amps        zin          id     
                                        
  1.0000e-09    1.700e+09    1.000e-09  
  1.0233e-09    1.661e+09    1.023e-09  
  1.0471e-09    1.623e+09    1.047e-09  
  1.0715e-09    1.586e+09    1.072e-09  
  1.0965e-09    1.550e+09    1.096e-09  
  1.1220e-09    1.515e+09    1.122e-09  
  1.1482e-09    1.480e+09    1.148e-09  
  1.1749e-09    1.446e+09    1.175e-09  
  1.2023e-09    1.414e+09    1.202e-09  
  1.2303e-09    1.381e+09    1.230e-09  
  1.2589e-09    1.350e+09    1.259e-09  
  1.2882e-09    1.319e+09    1.288e-09  
  1.3183e-09    1.289e+09    1.318e-09  
  1.3490e-09    1.260e+09    1.349e-09  
  1.3804e-09    1.231e+09    1.380e-09  
  1.4125e-09    1.203e+09    1.413e-09  
  1.4454e-09    1.176e+09    1.445e-09  
  1.4791e-09    1.149e+09    1.479e-09  
  1.5136e-09    1.123e+09    1.514e-09  
  1.5488e-09    1.097e+09    1.549e-09  
  1.5849e-09    1.072e+09    1.585e-09  
  1.6218e-09    1.048e+09    1.622e-09  
  1.6596e-09    1.024e+09    1.660e-09  
  1.6982e-09    1.001e+09    1.698e-09  
  1.7378e-09    9.782e+08    1.738e-09  
  1.7783e-09    9.559e+08    1.778e-09  
  1.8197e-09    9.342e+08    1.820e-09  
  1.8621e-09    9.129e+08    1.862e-09  
  1.9055e-09    8.921e+08    1.905e-09  
  1.9498e-09    8.718e+08    1.950e-09  
  1.9953e-09    8.520e+08    1.995e-09  
  2.0417e-09    8.326e+08    2.042e-09  
  2.0893e-09    8.136e+08    2.089e-09  
  2.1380e-09    7.951e+08    2.138e-09  
  2.1878e-09    7.770e+08    2.188e-09  
  2.2387e-09    7.593e+08    2.239e-09  
  2.2909e-09    7.420e+08    2.291e-09  
  2.3442e-09    7.251e+08    2.344e-09  
  2.3988e-09    7.086e+08    2.399e-09  
  2.4547e-09    6.925e+08    2.455e-09  
  2.5119e-09    6.767e+08    2.512e-09  
  2.5704e-09    6.613e+08    2.570e-09  
  2.6303e-09    6.463e+08    2.630e-09  
  2.6915e-09    6.316e+08    2.692e-09  
  2.7542e-09    6.172e+08    2.754e-09  
  2.8184e-09    6.031e+08    2.818e-09  
  2.8840e-09    5.894e+08    2.884e-09  
  2.9512e-09    5.760e+08    2.951e-09  
  3.0200e-09    5.629e+08    3.020e-09  
  3.0903e-09    5.501e+08    3.090e-09  
  3.1623e-09    5.375e+08    3.162e-09  
  3.2359e-09    5.253e+08    3.236e-09  
  3.3113e-09    5.133e+08    3.311e-09  
  3.3884e-09    5.017e+08    3.388e-09  
  3.4674e-09    4.902e+08    3.467e-09  
  3.5481e-09    4.791e+08    3.548e-09  
  3.6308e-09    4.682e+08    3.631e-09  
  3.7154e-09    4.575e+08    3.715e-09  
  3.8019e-09    4.471e+08    3.802e-09  
  3.8905e-09    4.369e+08    3.890e-09  
  3.9811e-09    4.270e+08    3.981e-09  
  4.0738e-09    4.173e+08    4.074e-09  
  4.1687e-09    4.078e+08    4.169e-09  
  4.2658e-09    3.985e+08    4.266e-09  
  4.3652e-09    3.894e+08    4.365e-09  
  4.4668e-09    3.805e+08    4.467e-09  
  4.5709e-09    3.719e+08    4.571e-09  
  4.6774e-09    3.634e+08    4.677e-09  
  4.7863e-09    3.551e+08    4.786e-09  
  4.8978e-09    3.471e+08    4.898e-09  
  5.0119e-09    3.391e+08    5.012e-09  
  5.1286e-09    3.314e+08    5.129e-09  
  5.2481e-09    3.239e+08    5.248e-09  
  5.3703e-09    3.165e+08    5.370e-09  
  5.4954e-09    3.093e+08    5.495e-09  
  5.6234e-09    3.023e+08    5.623e-09  
  5.7544e-09    2.954e+08    5.754e-09  
  5.8884e-09    2.887e+08    5.888e-09  
  6.0256e-09    2.821e+08    6.026e-09  
  6.1660e-09    2.757e+08    6.166e-09  
  6.3096e-09    2.694e+08    6.310e-09  
  6.4565e-09    2.633e+08    6.457e-09  
  6.6069e-09    2.573e+08    6.607e-09  
  6.7608e-09    2.514e+08    6.761e-09  
  6.9183e-09    2.457e+08    6.918e-09  
  7.0795e-09    2.401e+08    7.079e-09  
  7.2444e-09    2.346e+08    7.244e-09  
  7.4131e-09    2.293e+08    7.413e-09  
  7.5858e-09    2.241e+08    7.586e-09  
  7.7625e-09    2.190e+08    7.762e-09  
  7.9433e-09    2.140e+08    7.943e-09  
  8.1283e-09    2.091e+08    8.128e-09  
  8.3176e-09    2.043e+08    8.318e-09  
  8.5114e-09    1.997e+08    8.511e-09  
  8.7096e-09    1.951e+08    8.710e-09  
  8.9125e-09    1.907e+08    8.913e-09  
  9.1201e-09    1.864e+08    9.120e-09  
  9.3325e-09    1.821e+08    9.333e-09  
  9.5499e-09    1.780e+08    9.550e-09  
  9.7724e-09    1.739e+08    9.772e-09  
  1.0000e-08    1.700e+08    1.000e-08  
  1.0233e-08    1.661e+08    1.023e-08  
  1.0471e-08    1.623e+08    1.047e-08  
  1.0715e-08    1.586e+08    1.072e-08  
  1.0965e-08    1.550e+08    1.096e-08  
  1.1220e-08    1.515e+08    1.122e-08  
  1.1482e-08    1.480e+08    1.148e-08  
  1.1749e-08    1.446e+08    1.175e-08  
  1.2023e-08    1.414e+08    1.202e-08  
  1.2303e-08    1.381e+08    1.230e-08  
  1.2589e-08    1.350e+08    1.259e-08  
  1.2882e-08    1.319e+08    1.288e-08  
  1.3183e-08    1.289e+08    1.318e-08  
  1.3490e-08    1.260e+08    1.349e-08  
  1.3804e-08    1.231e+08    1.380e-08  
  1.4125e-08    1.203e+08    1.413e-08  
  1.4454e-08    1.176e+08    1.445e-08  
  1.4791e-08    1.149e+08    1.479e-08  
  1.5136e-08    1.123e+08    1.514e-08  
  1.5488e-08    1.097e+08    1.549e-08  
  1.5849e-08    1.072e+08    1.585e-08  
  1.6218e-08    1.048e+08    1.622e-08  
  1.6596e-08    1.024e+08    1.660e-08  
  1.6982e-08    1.001e+08    1.698e-08  
  1.7378e-08    9.782e+07    1.738e-08  
  1.7783e-08    9.559e+07    1.778e-08  
  1.8197e-08    9.342e+07    1.820e-08  
  1.8621e-08    9.129e+07    1.862e-08  
  1.9055e-08    8.921e+07    1.905e-08  
  1.9498e-08    8.718e+07    1.950e-08  
  1.9953e-08    8.520e+07    1.995e-08  
  2.0417e-08    8.326e+07    2.042e-08  
  2.0893e-08    8.136e+07    2.089e-08  
  2.1380e-08    7.951e+07    2.138e-08  
  2.1878e-08    7.770e+07    2.188e-08  
  2.2387e-08    7.593e+07    2.239e-08  
  2.2909e-08    7.420e+07    2.291e-08  
  2.3442e-08    7.251e+07    2.344e-08  
  2.3988e-08    7.086e+07    2.399e-08  
  2.4547e-08    6.925e+07    2.455e-08  
  2.5119e-08    6.767e+07    2.512e-08  
  2.5704e-08    6.613e+07    2.570e-08  
  2.6303e-08    6.463e+07    2.630e-08  
  2.6915e-08    6.316e+07    2.692e-08  
  2.7542e-08    6.172e+07    2.754e-08  
  2.8184e-08    6.031e+07    2.818e-08  
  2.8840e-08    5.894e+07    2.884e-08  
  2.9512e-08    5.760e+07    2.951e-08  
  3.0200e-08    5.629e+07    3.020e-08  
  3.0903e-08    5.501e+07    3.090e-08  
  3.1623e-08    5.375e+07    3.162e-08  
  3.2359e-08    5.253e+07    3.236e-08  
  3.3113e-08    5.133e+07    3.311e-08  
  3.3884e-08    5.017e+07    3.388e-08  
  3.4674e-08    4.902e+07    3.467e-08  
  3.5481e-08    4.791e+07    3.548e-08  
  3.6308e-08    4.682e+07    3.631e-08  
  3.7154e-08    4.575e+07    3.715e-08  
  3.8019e-08    4.471e+07    3.802e-08  
  3.8905e-08    4.369e+07    3.890e-08  
  3.9811e-08    4.270e+07    3.981e-08  
  4.0738e-08    4.173e+07    4.074e-08  
  4.1687e-08    4.078e+07    4.169e-08  
  4.2658e-08    3.985e+07    4.266e-08  
  4.3652e-08    3.894e+07    4.365e-08  
  4.4668e-08    3.805e+07    4.467e-08  
  4.5709e-08    3.719e+07    4.571e-08  
  4.6774e-08    3.634e+07    4.677e-08  
  4.7863e-08    3.551e+07    4.786e-08  
  4.8978e-08    3.471e+07    4.898e-08  
  5.0119e-08    3.391e+07    5.012e-08  
  5.1286e-08    3.314e+07    5.129e-08  
  5.2481e-08    3.239e+07    5.248e-08  
  5.3703e-08    3.165e+07    5.370e-08  
  5.4954e-08    3.093e+07    5.495e-08  
  5.6234e-08    3.023e+07    5.623e-08  
  5.7544e-08    2.954e+07    5.754e-08  
  5.8884e-08    2.887e+07    5.888e-08  
  6.0256e-08    2.821e+07    6.026e-08  
  6.1660e-08    2.757e+07    6.166e-08  
  6.3096e-08    2.694e+07    6.310e-08  
  6.4565e-08    2.633e+07    6.457e-08  
  6.6069e-08    2.573e+07    6.607e-08  
  6.7608e-08    2.514e+07    6.761e-08  
  6.9183e-08    2.457e+07    6.918e-08  
  7.0795e-08    2.401e+07    7.079e-08  
  7.2444e-08    2.346e+07    7.244e-08  
  7.4131e-08    2.293e+07    7.413e-08  
  7.5858e-08    2.241e+07    7.586e-08  
  7.7625e-08    2.190e+07    7.762e-08  
  7.9433e-08    2.140e+07    7.943e-08  
  8.1283e-08    2.091e+07    8.128e-08  
  8.3176e-08    2.043e+07    8.318e-08  
  8.5114e-08    1.997e+07    8.511e-08  
  8.7096e-08    1.951e+07    8.710e-08  
  8.9125e-08    1.907e+07    8.913e-08  
  9.1201e-08    1.864e+07    9.120e-08  
  9.3325e-08    1.821e+07    9.333e-08  
  9.5499e-08    1.780e+07    9.550e-08  
  9.7724e-08    1.739e+07    9.772e-08  
  1.0000e-07    1.700e+07    1.000e-07  
  1.0233e-07    1.661e+07    1.023e-07  
  1.0471e-07    1.623e+07    1.047e-07  
  1.0715e-07    1.586e+07    1.072e-07  
  1.0965e-07    1.550e+07    1.096e-07  
  1.1220e-07    1.515e+07    1.122e-07  
  1.1482e-07    1.480e+07    1.148e-07  
  1.1749e-07    1.446e+07    1.175e-07  
  1.2023e-07    1.414e+07    1.202e-07  
  1.2303e-07    1.381e+07    1.230e-07  
  1.2589e-07    1.350e+07    1.259e-07  
  1.2882e-07    1.319e+07    1.288e-07  
  1.3183e-07    1.289e+07    1.318e-07  
  1.3490e-07    1.260e+07    1.349e-07  
  1.3804e-07    1.231e+07    1.380e-07  
  1.4125e-07    1.203e+07    1.413e-07  
  1.4454e-07    1.176e+07    1.445e-07  
  1.4791e-07    1.149e+07    1.479e-07  
  1.5136e-07    1.123e+07    1.514e-07  
  1.5488e-07    1.097e+07    1.549e-07  
  1.5849e-07    1.072e+07    1.585e-07  
  1.6218e-07    1.048e+07    1.622e-07  
  1.6596e-07    1.024e+07    1.660e-07  
  1.6982e-07    1.001e+07    1.698e-07  
  1.7378e-07    9.782e+06    1.738e-07  
  1.7783e-07    9.559e+06    1.778e-07  
  1.8197e-07    9.342e+06    1.820e-07  
  1.8621e-07    9.129e+06    1.862e-07  
  1.9055e-07    8.921e+06    1.905e-07  
  1.9498e-07    8.718e+06    1.950e-07  
  1.9953e-07    8.520e+06    1.995e-07  
  2.0417e-07    8.326e+06    2.042e-07  
  2.0893e-07    8.136e+06    2.089e-07  
  2.1380e-07    7.951e+06    2.138e-07  
  2.1878e-07    7.770e+06    2.188e-07  
  2.2387e-07    7.593e+06    2.239e-07  
  2.2909e-07    7.420e+06    2.291e-07  
  2.3442e-07    7.251e+06    2.344e-07  
  2.3988e-07    7.086e+06    2.399e-07  
  2.4547e-07    6.925e+06    2.455e-07  
  2.5119e-07    6.767e+06    2.512e-07  
  2.5704e-07    6.613e+06    2.570e-07  
  2.6303e-07    6.463e+06    2.630e-07  
  2.6915e-07    6.316e+06    2.692e-07  
  2.7542e-07    6.172e+06    2.754e-07  
  2.8184e-07    6.031e+06    2.818e-07  
  2.8840e-07    5.894e+06    2.884e-07  
  2.9512e-07    5.760e+06    2.951e-07  
  3.0200e-07    5.629e+06    3.020e-07  
  3.0903e-07    5.501e+06    3.090e-07  
  3.1623e-07    5.375e+06    3.162e-07  
  3.2359e-07    5.253e+06    3.236e-07  
  3.3113e-07    5.133e+06    3.311e-07  
  3.3884e-07    5.017e+06    3.388e-07  
  3.4674e-07    4.902e+06    3.467e-07  
  3.5481e-07    4.791e+06    3.548e-07  
  3.6308e-07    4.682e+06    3.631e-07  
  3.7154e-07    4.575e+06    3.715e-07  
  3.8019e-07    4.471e+06    3.802e-07  
  3.8905e-07    4.369e+06    3.890e-07  
  3.9811e-07    4.270e+06    3.981e-07  
  4.0738e-07    4.173e+06    4.074e-07  
  4.1687e-07    4.078e+06    4.169e-07  
  4.2658e-07    3.985e+06    4.266e-07  
  4.3652e-07    3.894e+06    4.365e-07  
  4.4668e-07    3.805e+06    4.467e-07  
  4.5709e-07    3.719e+06    4.571e-07  
  4.6774e-07    3.634e+06    4.677e-07  
  4.7863e-07    3.551e+06    4.786e-07  
  4.8978e-07    3.471e+06    4.898e-07  
  5.0119e-07    3.391e+06    5.012e-07  
  5.1286e-07    3.314e+06    5.129e-07  
  5.2481e-07    3.239e+06    5.248e-07  
  5.3703e-07    3.165e+06    5.370e-07  
  5.4954e-07    3.093e+06    5.495e-07  
  5.6234e-07    3.023e+06    5.623e-07  
  5.7544e-07    2.954e+06    5.754e-07  
  5.8884e-07    2.887e+06    5.888e-07  
  6.0256e-07    2.821e+06    6.026e-07  
  6.1660e-07    2.757e+06    6.166e-07  
  6.3096e-07    2.694e+06    6.310e-07  
  6.4565e-07    2.633e+06    6.457e-07  
  6.6069e-07    2.573e+06    6.607e-07  
  6.7608e-07    2.514e+06    6.761e-07  
  6.9183e-07    2.457e+06    6.918e-07  
  7.0795e-07    2.401e+06    7.079e-07  
  7.2444e-07    2.346e+06    7.244e-07  
  7.4131e-07    2.293e+06    7.413e-07  
  7.5858e-07    2.241e+06    7.586e-07  
  7.7625e-07    2.190e+06    7.762e-07  
  7.9433e-07    2.140e+06    7.943e-07  
  8.1283e-07    2.091e+06    8.128e-07  
  8.3176e-07    2.043e+06    8.318e-07  
  8.5114e-07    1.997e+06    8.511e-07  
  8.7096e-07    1.951e+06    8.710e-07  
  8.9125e-07    1.907e+06    8.913e-07  
  9.1201e-07    1.864e+06    9.120e-07  
  9.3325e-07    1.821e+06    9.333e-07  
  9.5499e-07    1.780e+06    9.550e-07  
  9.7724e-07    1.739e+06    9.772e-07  
  1.0000e-06    1.700e+06    1.000e-06  
  1.0233e-06    1.661e+06    1.023e-06  
  1.0471e-06    1.623e+06    1.047e-06  
  1.0715e-06    1.586e+06    1.072e-06  
  1.0965e-06    1.550e+06    1.096e-06  
  1.1220e-06    1.515e+06    1.122e-06  
  1.1482e-06    1.480e+06    1.148e-06  
  1.1749e-06    1.446e+06    1.175e-06  
  1.2023e-06    1.414e+06    1.202e-06  
  1.2303e-06    1.381e+06    1.230e-06  
  1.2589e-06    1.350e+06    1.259e-06  
  1.2882e-06    1.319e+06    1.288e-06  
  1.3183e-06    1.289e+06    1.318e-06  
  1.3490e-06    1.260e+06    1.349e-06  
  1.3804e-06    1.231e+06    1.380e-06  
  1.4125e-06    1.203e+06    1.413e-06  
  1.4454e-06    1.176e+06    1.445e-06  
  1.4791e-06    1.149e+06    1.479e-06  
  1.5136e-06    1.123e+06    1.514e-06  
  1.5488e-06    1.097e+06    1.549e-06  
  1.5849e-06    1.072e+06    1.585e-06  
  1.6218e-06    1.048e+06    1.622e-06  
  1.6596e-06    1.024e+06    1.660e-06  
  1.6982e-06    1.001e+06    1.698e-06  
  1.7378e-06    9.782e+05    1.738e-06  
  1.7783e-06    9.559e+05    1.778e-06  
  1.8197e-06    9.342e+05    1.820e-06  
  1.8621e-06    9.129e+05    1.862e-06  
  1.9055e-06    8.921e+05    1.905e-06  
  1.9498e-06    8.718e+05    1.950e-06  
  1.9953e-06    8.520e+05    1.995e-06  
  2.0417e-06    8.326e+05    2.042e-06  
  2.0893e-06    8.136e+05    2.089e-06  
  2.1380e-06    7.951e+05    2.138e-06  
  2.1878e-06    7.770e+05    2.188e-06  
  2.2387e-06    7.593e+05    2.239e-06  
  2.2909e-06    7.420e+05    2.291e-06  
  2.3442e-06    7.251e+05    2.344e-06  
  2.3988e-06    7.086e+05    2.399e-06  
  2.4547e-06    6.925e+05    2.455e-06  
  2.5119e-06    6.767e+05    2.512e-06  
  2.5704e-06    6.613e+05    2.570e-06  
  2.6303e-06    6.463e+05    2.630e-06  
  2.6915e-06    6.316e+05    2.692e-06  
  2.7542e-06    6.172e+05    2.754e-06  
  2.8184e-06    6.031e+05    2.818e-06  
  2.8840e-06    5.894e+05    2.884e-06  
  2.9512e-06    5.760e+05    2.951e-06  
  3.0200e-06    5.629e+05    3.020e-06  
  3.0903e-06    5.501e+05    3.090e-06  
  3.1623e-06    5.375e+05    3.162e-06  
  3.2359e-06    5.253e+05    3.236e-06  
  3.3113e-06    5.133e+05    3.311e-06  
  3.3884e-06    5.017e+05    3.388e-06  
  3.4674e-06    4.902e+05    3.467e-06  
  3.5481e-06    4.791e+05    3.548e-06  
  3.6308e-06    4.682e+05    3.631e-06  
  3.7154e-06    4.575e+05    3.715e-06  
  3.8019e-06    4.471e+05    3.802e-06  
  3.8905e-06    4.369e+05    3.890e-06  
  3.9811e-06    4.270e+05    3.981e-06  
  4.0738e-06    4.173e+05    4.074e-06  
  4.1687e-06    4.078e+05    4.169e-06  
  4.2658e-06    3.985e+05    4.266e-06  
  4.3652e-06    3.894e+05    4.365e-06  
  4.4668e-06    3.805e+05    4.467e-06  
  4.5709e-06    3.719e+05    4.571e-06  
  4.6774e-06    3.634e+05    4.677e-06  
  4.7863e-06    3.551e+05    4.786e-06  
  4.8978e-06    3.471e+05    4.898e-06  
  5.0119e-06    3.391e+05    5.012e-06  
  5.1286e-06    3.314e+05    5.129e-06  
  5.2481e-06    3.239e+05    5.248e-06  
  5.3703e-06    3.165e+05    5.370e-06  
  5.4954e-06    3.093e+05    5.495e-06  
  5.6234e-06    3.023e+05    5.623e-06  
  5.7544e-06    2.954e+05    5.754e-06  
  5.8884e-06    2.887e+05    5.888e-06  
  6.0256e-06    2.821e+05    6.026e-06  
  6.1660e-06    2.757e+05    6.166e-06  
  6.3096e-06    2.694e+05    6.310e-06  
  6.4565e-06    2.633e+05    6.457e-06  
  6.6069e-06    2.573e+05    6.607e-06  
  6.7608e-06    2.514e+05    6.761e-06  
  6.9183e-06    2.457e+05    6.918e-06  
  7.0795e-06    2.401e+05    7.079e-06  
  7.2444e-06    2.346e+05    7.244e-06  
  7.4131e-06    2.293e+05    7.413e-06  
  7.5858e-06    2.241e+05    7.586e-06  
  7.7625e-06    2.190e+05    7.762e-06  
  7.9433e-06    2.140e+05    7.943e-06  
  8.1283e-06    2.091e+05    8.128e-06  
  8.3176e-06    2.043e+05    8.318e-06  
  8.5114e-06    1.997e+05    8.511e-06  
  8.7096e-06    1.951e+05    8.710e-06  
  8.9125e-06    1.907e+05    8.913e-06  
  9.1201e-06    1.864e+05    9.120e-06  
  9.3325e-06    1.821e+05    9.333e-06  
  9.5499e-06    1.780e+05    9.550e-06  
  9.7724e-06    1.739e+05    9.772e-06  
  1.0000e-05    1.700e+05    1.000e-05  
y
  *** initial damped pseudo transient completed. ***
  *** final try started ***
1****** HSPICE -- B-2008.09-SP1 32-BIT (Nov 24 2008) linux ******               
 ******  
 *current enlargge: use an op and two mos of current mirror

  ******  operating point information tnom=  25.000 temp=  25.000 *****
 ***** operating point status is all       simulation time is     0.     
    node    =voltage      node    =voltage      node    =voltage

 +0:c0      = 1.225e+00 0:cn      = 4.499e-01 0:cp      = 2.700e+00
 +0:eb      = 2.600e+00 0:vdd     = 3.300e+00 0:vdt     = 1.000e+00
 +0:vgt     = 2.000e+00 0:vinn    = 1.700e+00 0:vinp    = 1.700e+00
 +0:vinp2   = 1.700e+00 0:vop     = 1.665e+00 0:vop2    = 1.062e-02
 +0:vout    = 1.062e-02 0:vss     =   0.      0:vst     = 2.691e+00
 +1:1       = 5.272e-01 1:2       = 5.272e-01 1:b       = 2.284e+00
 +1:vo2     = 2.482e+00 1:voa     = 2.482e+00 1:von     = 1.665e+00
 +1:zon     = 1.665e+00 2:1       = 2.194e+00 2:2       = 5.795e-03
 +2:b       = 2.194e+00 2:vo2     = 1.661e+00 2:voa     = 1.662e+00
 +2:von     = 2.442e-02 2:zon     = 2.442e-02


 maximum nodal capacitance=   4.510E-12         on node     0:vdd             

    nodal  capacitance table 

    node    =    cap      node    =    cap      node    =    cap

 +0:c0      = 1.793e-14 0:cn      = 6.420e-14 0:cp      = 2.280e-13
 +0:eb      = 5.476e-13 0:vdd     = 4.510e-12 0:vdt     = 5.744e-15
 +0:vgt     = 3.452e-15 0:vinn    = 6.887e-15 0:vinp    = 1.853e-14
 +0:vinp2   = 7.022e-15 0:vop     = 1.479e-12 0:vop2    = 1.070e-12
 +0:vout    = 1.350e-12 0:vss     = 2.097e-12 0:vst     = 2.342e-14
 +1:1       = 4.613e-14 1:2       = 4.613e-14 1:b       = 1.638e-13
 +1:vo2     = 5.947e-14 1:voa     = 8.036e-14 1:von     = 6.512e-14
 +1:zon     = 1.000e-12 2:1       = 1.007e-13 2:2       = 4.978e-14
 +2:b       = 1.821e-13 2:vo2     = 5.801e-14 2:voa     = 8.150e-14
 +2:von     = 1.175e-13 2:zon     = 1.000e-12

 

 ****  voltage sources

 subckt                                                                    
 element  0:vinp     0:vinn     0:veb      0:vinp2    0:vd       0:vs      
  volts    1.700e+00  1.700e+00  2.600e+00  1.700e+00  3.300e+00    0.     
  current -3.137e-04    0.         0.         0.      -1.140e-03  1.453e-03
  power    5.333e-04    0.         0.         0.       3.763e-03    0.     

 subckt                        
 element  0:vtg      0:vtd     
  volts    2.000e+00  1.000e+00
  current    0.       1.000e-06
  power      0.      -1.000e-06

     total voltage source power dissipation=  4.295e-03       watts



 ***** current sources

 subckt                                   
 element  0:ic       0:iin      0:it      
  volts    2.700e+00 -1.600e+00  6.090e-01
  current  5.000e-07  1.000e-08  1.000e-06
  power   -1.350e-06  1.600e-08 -6.090e-07


     total current source power dissipation=-1.943e-06       watts

 **** resistors

 subckt              xop1       xop2      
 element  0:ro       1:rz       2:rz      
  r value  1.000e-05  1.000e+05  1.000e+05
  v drop  -3.474e-09    0.         0.     
  current -3.474e-04    0.         0.     
  power    1.207e-12    0.         0.     



 **** mosfets


 subckt                                                                    
 element  0:mc0      0:mc1      0:mc2      0:mc3      0:me1b     0:me2b    
 model    0:pch.3    0:pch.3    0:pch.6    0:nch.3    0:pch.3    0:pch.3   
 region       Cutoff     Cutoff   Saturati     Cutoff   Saturati   Saturati
  id      -5.000e-07 -3.747e-07 -3.747e-07  3.747e-07 -1.824e-06 -4.253e-04
  ibs      1.004e-19  7.527e-20  8.207e-20 -5.981e-19  3.627e-19  8.455e-17
  ibd      3.331e-15  2.494e-12  1.159e-16 -2.153e-14  4.867e-13  1.153e-07
  vgs     -5.993e-01 -5.993e-01 -7.753e-01  4.499e-01 -7.000e-01 -7.000e-01
  vds     -5.993e-01 -2.074e+00 -7.753e-01  4.499e-01 -1.600e+00 -3.289e+00
  vbs        0.         0.         0.         0.         0.         0.     
  vth     -7.198e-01 -6.799e-01 -7.454e-01  5.699e-01 -6.891e-01 -6.436e-01
  vdsat   -4.893e-02 -5.365e-02 -1.021e-01  4.412e-02 -7.990e-02 -1.048e-01
  vod      1.205e-01  8.054e-02 -2.990e-02 -1.199e-01 -1.092e-02 -5.640e-02
  beta     4.335e-03  1.252e-03  1.063e-04  8.618e-03  1.011e-03  1.020e-01
  gam eff  4.553e-01  4.553e-01  4.082e-01  5.577e-01  4.608e-01  4.608e-01
  gm       1.151e-05  8.252e-06  5.574e-06  9.828e-06  3.487e-05  6.969e-03
  gds      3.541e-07  2.330e-07  1.632e-07  1.620e-07  9.978e-07  1.947e-04
  gmb      2.576e-06  1.809e-06  1.177e-06  2.825e-06  7.426e-06  1.473e-03
  cdtot    5.072e-14  1.084e-14  1.895e-15  2.054e-14  9.007e-15  7.252e-13
  cgtot    2.458e-14  7.023e-15  9.699e-16  1.269e-14  5.422e-15  5.422e-13
  cstot    6.271e-14  1.792e-14  2.700e-15  2.275e-14  1.384e-14  1.384e-12
  cbtot    1.121e-13  2.838e-14  4.394e-15  4.318e-14  2.238e-14  2.062e-12
  cgs      6.469e-15  1.848e-15  3.889e-16  3.200e-15  1.473e-15  1.473e-13
  cgd      6.469e-15  1.848e-15  1.922e-16  3.200e-15  1.473e-15  1.473e-13



 subckt                                    xop1       xop1       xop1      
 element  0:me1      0:me2      0:mt       1:mb       1:m1       1:m2      
 model    0:nch.3    0:nch.3    0:pch.3    0:pch.11   0:pch.3    0:pch.3   
 region     Saturati     Linear   Saturati     Cutoff     Cutoff     Cutoff
  id       3.155e-04  7.728e-04 -1.000e-06 -4.267e-07 -2.133e-07 -2.133e-07
  ibs     -5.416e-16 -1.440e-15  2.008e-19  8.384e-20  4.230e-20  4.230e-20
  ibd     -2.598e-12 -1.155e-13  5.628e-13  5.659e-15  2.345e-13  2.345e-13
  vgs      1.665e+00  1.665e+00 -6.910e-01 -5.993e-01 -5.849e-01 -5.849e-01
  vds      1.700e+00  1.062e-02 -1.691e+00 -1.015e+00 -1.757e+00 -1.757e+00
  vbs        0.         0.         0.         0.         0.         0.     
  vth      5.571e-01  5.693e-01 -6.903e-01 -7.470e-01 -6.836e-01 -6.836e-01
  vdsat    6.926e-01  6.889e-01 -7.718e-02 -5.273e-02 -5.025e-02 -5.025e-02
  vod      1.108e+00  1.096e+00 -7.587e-04  1.477e-01  9.876e-02  9.876e-02
  beta     9.570e-04  9.555e-02  6.218e-04  3.677e-03  1.279e-03  1.279e-03
  gam eff  5.352e-01  5.352e-01  4.553e-01  3.917e-01  4.626e-01  4.626e-01
  gm       4.074e-04  4.705e-04  1.910e-05  9.340e-06  4.902e-06  4.902e-06
  gds      1.082e-05  7.370e-02  5.476e-07  8.115e-08  1.381e-07  1.381e-07
  gmb      9.947e-05  1.539e-04  4.075e-06  2.141e-06  1.095e-06  1.095e-06
  cdtot    2.634e-15  6.248e-13  5.744e-15  7.470e-14  1.084e-14  1.084e-14
  cgtot    3.367e-15  4.319e-13  3.452e-15  7.285e-14  6.887e-15  6.887e-15
  cstot    6.194e-15  6.458e-13  8.959e-15  1.025e-13  1.709e-14  1.709e-14
  cbtot    6.097e-15  6.901e-13  1.446e-14  2.046e-13  2.746e-14  2.746e-14
  cgs      2.594e-15  2.101e-13  9.242e-16  1.136e-14  1.839e-15  1.839e-15
  cgd      4.270e-16  2.089e-13  9.242e-16  1.136e-14  1.839e-15  1.839e-15



 subckt   xop1       xop1       xop1       xop1       xop1       xop1      
 element  1:m3       1:m4       1:m1pa     1:m1pb     1:m2pa     1:m2pb    
 model    0:nch.3    0:nch.3    0:pch.3    0:pch.3    0:pch.3    0:pch.3   
 region       Cutoff     Cutoff   Saturati   Saturati   Saturati   Saturati
  id       2.133e-07  2.133e-07 -7.826e-06 -7.826e-06 -7.826e-06 -7.826e-06
  ibs     -3.488e-19 -3.488e-19  1.580e-18  1.580e-18  1.580e-18  1.580e-18
  ibd     -1.218e-14 -1.218e-14  7.722e-16  7.722e-16  7.722e-16  7.722e-16
  vgs      4.499e-01  4.499e-01 -8.171e-01 -8.171e-01 -8.171e-01 -8.171e-01
  vds      5.272e-01  5.272e-01 -8.171e-01 -8.171e-01 -8.171e-01 -8.171e-01
  vbs        0.         0.         0.         0.         0.         0.     
  vth      5.687e-01  5.687e-01 -7.164e-01 -7.164e-01 -7.164e-01 -7.164e-01
  vdsat    4.407e-02  4.407e-02 -1.380e-01 -1.380e-01 -1.380e-01 -1.380e-01
  vod     -1.188e-01 -1.188e-01 -1.007e-01 -1.007e-01 -1.007e-01 -1.007e-01
  beta     4.680e-03  4.680e-03  9.662e-04  9.662e-04  9.662e-04  9.662e-04
  gam eff  5.545e-01  5.545e-01  4.517e-01  4.517e-01  4.517e-01  4.517e-01
  gm       5.596e-06  5.596e-06  1.017e-04  1.017e-04  1.017e-04  1.017e-04
  gds      9.016e-08  9.016e-08  3.307e-06  3.307e-06  3.307e-06  3.307e-06
  gmb      1.603e-06  1.603e-06  2.150e-05  2.150e-05  2.150e-05  2.150e-05
  cdtot    1.133e-14  1.133e-14  1.120e-14  1.120e-14  1.120e-14  1.120e-14
  cgtot    7.024e-15  7.024e-15  1.044e-14  1.044e-14  1.044e-14  1.044e-14
  cstot    1.270e-14  1.270e-14  2.247e-14  2.247e-14  2.247e-14  2.247e-14
  cbtot    2.401e-14  2.401e-14  2.580e-14  2.580e-14  2.580e-14  2.580e-14
  cgs      1.762e-15  1.762e-15  7.548e-15  7.548e-15  7.548e-15  7.548e-15
  cgd      1.762e-15  1.762e-15  1.482e-15  1.482e-15  1.482e-15  1.482e-15



 subckt   xop1       xop1       xop2       xop2       xop2       xop2      
 element  1:m3n      1:m4n      2:mb       2:m1       2:m2       2:m3      
 model    0:nch.3    0:nch.3    0:pch.11   0:pch.3    0:pch.3    0:nch.3   
 region       Cutoff     Cutoff     Cutoff     Linear     Cutoff     Cutoff
  id       7.826e-06  7.826e-06 -4.340e-07 -4.011e-07 -3.289e-08  4.007e-07
  ibs     -1.153e-17 -1.153e-17  8.528e-20  7.953e-20  6.522e-21 -6.552e-19
  ibd     -2.416e-10 -2.416e-10  5.781e-15  1.159e-17  3.851e-13 -4.043e-10
  vgs      5.272e-01  5.272e-01 -5.993e-01 -2.183e+00 -4.944e-01  4.499e-01
  vds      1.665e+00  1.665e+00 -1.105e+00 -3.257e-04 -2.188e+00  2.194e+00
  vbs        0.         0.         0.         0.         0.         0.     
  vth      5.628e-01  5.628e-01 -7.463e-01 -7.309e-01 -6.720e-01  5.561e-01
  vdsat    5.276e-02  5.276e-02 -5.279e-02 -1.174e+00 -4.600e-02  4.460e-02
  vod     -3.566e-02 -3.566e-02  1.470e-01 -1.452e+00  1.777e-01 -1.062e-01
  beta     1.748e-02  1.748e-02  3.677e-03  9.768e-04  1.284e-03  4.687e-03
  gam eff  5.675e-01  5.675e-01  3.917e-01  4.626e-01  4.626e-01  5.545e-01
  gm       1.834e-04  1.834e-04  9.490e-06  1.784e-07  8.120e-07  1.031e-05
  gds      2.563e-06  2.563e-06  8.141e-08  1.248e-03  2.264e-08  1.415e-07
  gmb      5.042e-05  5.042e-05  2.175e-06  7.015e-08  1.918e-07  2.879e-06
  cdtot    3.303e-14  3.303e-14  7.325e-14  2.982e-14  1.017e-14  9.608e-15
  cgtot    2.396e-14  2.396e-14  7.285e-14  1.870e-14  7.022e-15  7.024e-15
  cstot    4.222e-14  4.222e-14  1.025e-13  3.055e-14  1.709e-14  1.270e-14
  cbtot    7.435e-14  7.435e-14  2.032e-13  3.422e-14  2.693e-14  2.229e-14
  cgs      6.218e-15  6.218e-15  1.136e-14  9.276e-15  1.839e-15  1.762e-15
  cgd      6.218e-15  6.218e-15  1.136e-14  9.275e-15  1.839e-15  1.762e-15



 subckt   xop2       xop2       xop2       xop2       xop2       xop2      
 element  2:m4       2:m1pa     2:m1pb     2:m2pa     2:m2pb     2:m3n     
 model    0:nch.3    0:pch.3    0:pch.3    0:pch.3    0:pch.3    0:nch.3   
 region       Cutoff   Saturati   Saturati   Saturati   Saturati     Linear
  id       3.290e-08 -3.473e-04 -3.473e-04 -3.474e-04 -3.474e-04  3.473e-04
  ibs     -5.379e-20  6.711e-17  6.711e-17  6.711e-17  6.711e-17 -5.082e-16
  ibd     -2.460e-15  4.433e-15  4.433e-15  4.503e-15  5.947e-15 -2.325e-14
  vgs      4.499e-01 -1.637e+00 -1.637e+00 -1.637e+00 -1.637e+00  2.194e+00
  vds      5.795e-03 -1.637e+00 -1.637e+00 -1.638e+00 -1.650e+00  2.442e-02
  vbs        0.         0.         0.         0.         0.         0.     
  vth      5.726e-01 -6.947e-01 -6.947e-01 -6.947e-01 -6.944e-01  5.749e-01
  vdsat    4.393e-02 -8.008e-01 -8.008e-01 -8.008e-01 -8.005e-01  9.039e-01
  vod     -1.227e-01 -9.430e-01 -9.430e-01 -9.431e-01 -9.427e-01  1.619e+00
  beta     4.678e-03  8.474e-04  8.474e-04  8.474e-04  8.476e-04  1.478e-02
  gam eff  5.545e-01  4.517e-01  4.517e-01  4.517e-01  4.517e-01  5.675e-01
  gm       8.491e-07  6.141e-04  6.141e-04  6.141e-04  6.146e-04  1.094e-04
  gds      5.243e-06  3.669e-05  3.669e-05  3.668e-05  3.642e-05  1.444e-02
  gmb      2.471e-07  1.296e-04  1.296e-04  1.296e-04  1.297e-04  4.399e-05
  cdtot    1.268e-14  9.490e-15  9.490e-15  9.488e-15  9.469e-15  8.450e-14
  cgtot    7.024e-15  1.174e-14  1.174e-14  1.174e-14  1.174e-14  6.126e-14
  cstot    1.270e-14  2.451e-14  2.451e-14  2.451e-14  2.451e-14  8.789e-14
  cbtot    2.536e-14  2.402e-14  2.402e-14  2.402e-14  2.400e-14  8.628e-14
  cgs      1.762e-15  9.276e-15  9.276e-15  9.276e-15  9.276e-15  3.064e-14
  cgd      1.762e-15  1.482e-15  1.482e-15  1.482e-15  1.482e-15  3.036e-14



 subckt   xop2      
 element  2:m4n     
 model    0:nch.3   
 region       Cutoff
  id       7.544e-13
  ibs     -1.143e-24
  ibd     -1.294e-14
  vgs      5.795e-03
  vds      1.062e-02
  vbs        0.     
  vth      5.749e-01
  vdsat    4.302e-02
  vod     -5.691e-01
  beta     1.747e-02
  gam eff  5.675e-01
  gm       2.156e-11
  gds      6.050e-11
  gmb      7.708e-12
  cdtot    4.209e-14
  cgtot    2.692e-14
  cstot    4.222e-14
  cbtot    8.636e-14
  cgs      6.218e-15
  cgd      6.218e-15




          ***** job concluded
1****** HSPICE -- B-2008.09-SP1 32-BIT (Nov 24 2008) linux ******               
 ******  
 *current enlargge: use an op and two mos of current mirror

  ******  job statistics summary tnom=  25.000 temp=  25.000 *****

  ******  HSPICE Threads Information  ******
  Command Line Threads Count:                      0
  Available CPU Count:                             8
  Actual Model Evaluation(Load) Threads Count:     1
  Actual Solver Threads Count:                     1


  ******  Circuit Statistics  ******
  # nodes       =      93  # elements   =      48
  # resistors   =       3  # capacitors =       2  # inductors   =       0
  # mutual_inds =       0  # vccs       =       0  # vcvs        =       0
  # cccs        =       0  # ccvs       =       0  # volt_srcs   =       9
  # curr_srcs   =       3  # diodes     =       0  # bjts        =       0
  # jfets       =       0  # mosfets    =      31  # U elements  =       0
  # T elements  =       0  # W elements =       0  # B elements  =       0
  # S elements  =       0  # P elements =       0  # va device   =       0


  ******  Runtime Statistics (seconds)  ******

  analysis           time    # points   tot. iter  conv.iter
  op point           0.05           1         497
  dc sweep           0.08         401         873
  readin             0.04
  errchk             0.01
  setup              0.00
  output             0.00


           total memory used          538  kbytes
           total cpu time            0.18 seconds
           total elapsed time        0.34 seconds
           job started at     21:18:19 01/22/2016
           job ended   at     21:18:20 01/22/2016


 Init: hspice initialization file: /usr/cad/synopsys/hspice/cur/hspice/hspice.ini
 lic: Release hspice token(s) 
