Using: /usr/bin/time -p /usr/cad/synopsys/hspice/cur/hspice/linux/hspice ImirrorBias.sp
 ****** HSPICE -- B-2008.09-SP1 32-BIT (Nov 24 2008) linux ******               
  Copyright (C) 2008 Synopsys, Inc. All Rights Reserved.                        
  Unpublished-rights reserved under US copyright laws.
  This program is protected by law and is subject to the 
  terms and conditions of the license agreement from Synopsys.
  Use of this program is your acceptance to be bound by the 
  license agreement. HSPICE is the trademark of Synopsys, Inc.
  Input File: ImirrorBias.sp                                                    
 lic:  
 lic: FLEXlm: v8.5b 
 lic: USER:   m103061608           HOSTNAME: ws34 
 lic: HOSTID: e41f1366b76c         PID:      32759 
 lic: Using FLEXlm license file: 
 lic: 26585@lscic 
 lic: Checkout 1 hspice 
 lic: License/Maintenance for hspice will expire on 14-may-2016/2015.06 
 lic: FLOATING license(s) on SERVER lscic 
 lic:   
 Init: read install configuration file: /usr/cad/synopsys/hspice/cur/hspice/meta.cfg
 Init: hspice initialization file: /usr/cad/synopsys/hspice/cur/hspice/hspice.ini
 .option runlvl
 .option post acout=0 accurate=1 dcon=1 converge=1 gmindc=1.0000e-12 captab=1 unwrap=1
 + ingold=1
 *.options node list


 .subckt cmb vdd vss cp cp2 cp3 cp4 cn     *cp = 2.4; cp2 = 1.25; cp3 = 0.6; cp4 = 2.7
 mc0 cp  cp  vdd vdd pch w = 5.1u l = 5u     m = 1
 mc1 c0  cp  vdd vdd pch w = 2u   l = 5u     m = 1
 mc5 c2  cp  vdd vdd pch w = 2u   l = 5u     m = 1
 mc2 cp2 cp2 c0  c0  pch w = 1u   l = 5u     m = 1
 mc6 c3  cp2 c2  c2  pch w = 1u   l = 5u     m = 1
 mc3 cn  cp3 cp2 cp2 pch w = 5u   l = 0.5u   m = 2
 mc7 cp3 cp3 c3  c3  pch w = 5u   l = 0.5u   m = 2
 mc4 cn  cn  vss vss nch w = 1u   l = 3u     m = 1
 mc8 cp3 cn  vss vss nch w = 1u   l = 3u     m = 1

 mca cp4 cp4 vdd vdd pch w = 5u   l = 0.5u   m = 6
 mcb cp4 cn  vss vss nch w = 1u   l = 2u     m = 1
 .ends

 .subckt cmb_beta vdd vss ix 1 2 rr = 60k wx = 1u
 m0 ix  ix  vdd vdd pch w = 5u l = 5u  m = 1
 m1 1   ix   vdd vdd pch w = 5u l = 5u m = 1
 m2 2   ix   vdd vdd pch w = 5u l = 5u m = 1
 m3 1   rx   vss vss nch w = wx  l = 2u m = 1
 m4 2   1   rx  vss nch w = 'wx * 4' l = 2u m = 1
 r1 rx  vss 1000k
 .ends

 .subckt cmb_beta2 vdd vss 1 2 3 4 rr = 60k wx = 1u
 m1 1   1   vdd vdd pch w = 5u l = 5u m = 1
 m2 2   1   vdd vdd pch w = 5u l = 5u m = 1
 m3 1   2   3   vss nch w = wx  l = 1u m = 3
 m4 2   2   4   vss nch w = wx  l = 1u m = 3
 m5 3   3   vss vss nch w = wx  l = 1u m = 4
 m6 4   3   rx  vss nch w = 'wx * 4' l = 1u m = 4
 r1 rx  vss rr
 .ends

 .subckt cmb_beta3 vdd vss ix 1 2 3 4 rr = 60k wx = 1u
 m0 ix  ix  vdd vdd pch w = 5u l = 5u  m = 1
 m1 1   ix  vdd vdd pch w = 5u l = 5u m = 1
 m2 2   ix  vdd vdd pch w = 5u l = 5u m = 1
 m3 3   3   1   1   pch w = 5u l = 5u m = 1
 m4 4   3   2   2   pch w = 5u l = 5u m = 1
 m5 3   4   rx vss nch w = 'wx * 4'  l = 1u m = 1
 m6 4   4   vss vss nch w = wx l = 1u m = 1
 r1 rx  vss rr
 .ends

 .subckt cmb_beta4 vdd vss 1 4 wp = 20u
 m1 1   1   vdd vdd pch w = wp l = 5u m = 1
 m2 2   1   vdd vdd pch w = wp l = 5u m = 1
 m3 3   3   1   1   pch w = wp l = 1u m = 1
 m4 4   3   2   2   pch w = wp l = 1u m = 1
 m5 3   4   rx  vss nch w = '3.5u * 4' l = 5u m = 1
 m6 4   4   vss vss nch w = '3.5u * 1' l = 5u m = 1
 r1 rx vss 25k
 msus1a s0  s1  vdd vdd pch w = 1u l = 5u m = 1
 msus1b s1  s1  s0  s0  pch w = 1u l = 5u m = 1
 msus2  s1  4   vss vss nch w = 3.5u l = 5u m = 1
 msus3  1   s1  4   vss nch w = 1u   l = 1u m = 1
 .ends

 .subckt cmb_bete5 vdd vss cp cn wp = 5u
 mc0 cp  cp  vdd vdd pch w = 1.5u l = 1u m = 1
 mc1 cn  cp  vdd vdd pch w = 1.5u l = 1u m = 4
 mc2 cn  cn  vss vss nch w = 3.5u  l = 5u m = 1
 .ends

 .subckt ibias vdd vss cn mpx mpy rin = 10k
 mp  mpy mpx vdd vdd pch w = 1u   l =  0.5u m = 4
 mpb io  mpx vdd vdd pch w = 1u   l =  0.5u m = 1
 *eo  io  vss opamp opb1 io

 *vio vio vss dc = 0.8
 eio io gnd opamp io cn
 *(id, vgs, gm, rds): (10n, -0.5423, 2.363e-07, 574x); (10u, -0.9871,  7.141e-05, 1.67x)
 mn  mpy cn rx vss nch w = 5u l =  0.5u m = 3
 r1  rx  vss rin
 .ends

 .subckt opnw vdd vss vinp vinn vop cz
 mb	b	cz	 vdd vdd pch w = 12u  l = 10u  m = 1
 m1	1	vinn b	 b	 pch w = 1u   l = 1u  m = 1
 m2	2	vinp b	 b	 pch w = 1u   l = 1u  m = 1
 m3	1	1	 vss vss nch w = 1u   l = 1u  m = 1
 m4	2	1	 vss vss nch w = 1u   l = 1u    m = 1
 ma1 vop cz vdd vdd pch w =  2u l = 0.5u m = 1
 ma2 vop 2  vss vss nch w =  4u l = 1u m = 2
 .ends

 .subckt opnw2 vdd vss vinp vinn 2 opb1 cp
 ******** bias from fd op *******
 *mc1 cp2 cp2 vdd vdd pch w = 1u   l = 5u m = 1
 *mc2 cp2 opb1  cn2 cn2 nch w = 3.5u l = 1u   m = 3
 *mc3 cn2 cn2 vss vss nch w = 5u   l = 1u m = 2

 mc1 cp2 cp2 vdd vdd pch w = 1u   l = 5u m = 1
 mc2 cp2 opb1  cn2 vss nch w = 3.5u l = 0.5u   m = 7
 mc3 cn2 cn2 vss vss nch w = 2u   l = 1u m = 1
 ********
 m1	1	vinp b	 vss nch w = 5u   l = 2u  m = 1
 m2	2	vinn b	 vss nch w = 5u   l = 2u  m = 1
 m3	1	1	 vdd vdd pch w = 2u   l = 1u  m = 1
 m4	2	1	 vdd vdd pch w = 2u   l = 1u  m = 1
 mb  b   cn2  vss vss nch w = 2u   l = 1u m = 1
 c1   2   vinp 30f
 *c3   1   vinp 100f
 mr1  xx  rb  1   1   pch w = 1u l = 5u m = 1
 mcr1 cr1 1   vdd vdd pch w = 2u l = 1u m = 1
 mcr4 rb  rb  cr2 cr2 pch w = 1u l = 1u m = 2
 mcr5 cr2 cr2 vdd vdd pch w = 2u l = 1u m = 1
 mcr2 cr1 cr1 vss vss nch w = 1u l = 0.5u m = 1
 mcr3 rb  cr1 vss vss nch w = 1u l = 0.5u m = 1
 c2   2   xx  200f
 *c5  vinp vss  100f
 *c3   2  1 100f
 *r3  zz  1  10x
 .ends

 .subckt op_fc vdd vss vinp vinn vop cn cp
 ***input stage***
 mn	1	vinp b	 b	 nch w = 3u   l = 5u  m = 2
 mp	2	vinn b	 b	 nch w = 3u   l = 5u  m = 2
 mb 	b	cn2	 vss  vss nch w = 5u   l = 1u  m = 4
 ***output stage***
 m1  1   cp2 vdd vdd pch w = 1u   l = 5u m = 2
 m2  2   cp2 vdd vdd pch w = 1u   l = 5u m = 2
 m3	von cp	1   1   pch w = 2u   l = 1u  m = 1      * gm*rds = 50 (id = 200n)
 m4	vop	cp	2   2   pch w = 2u   l = 1u  m = 1
 m5  von	cn  5   vss nch w = 2u   l = 1u  m = 1
 m6  vop	cn  6   vss nch w = 2u   l = 1u  m = 1
 m7  5   von vss vss nch w = 3u   l = 5u  m = 1
 m8  6   von vss vss nch w = 3u   l = 5u  m = 1
 mc1 cp2 cp2 vdd vdd pch w = 1u   l = 5u m = 1
 mc2 cp2 cn  cn2 cn2 nch w = 3.5u l = 1u   m = 3
 mc3 cn2 cn2 vss vss nch w = 5u   l = 1u m = 2
 *c1  vop vss 5p
 .ends




 * vgsi + vdsb = 0.8; 0.8 - vth < vdsb
 * => 0.8 - vth < 0.8 - vgsi -> vth > vgsi




 iin cp  vss dc = 1u
 *iin2 ix vss dc = 1u
 xcmb   vdd vss cp cn cmb_bete5 wp = 5u
 *xcmb_b vdd vss 1 2 3 4 cmb_beta2 rr = 10k wx = 1u
 *xcmb_c vdd vss ix 1 2 3 4 cmb_beta3 rr = 10k wx = 1u
 *xcmb_d vdd vss cz 4 cmb_beta4 wp = 20u



 *** compensation ***
 *c1  vss mpy 1p
 *r1  mpx xx 25k

 *c2  xx 1   100f
 *r2  mpy xx  100k



 mt vdt vgt vst vst nch w = 5u l = 5u
 vtd vdt gnd dc = 2
 vtg vgt gnd dc = 1.5
 *vts vst gnd dc =
 *vtb vbt gnd
 it vst vss dc = 1u


 .param
 +supplyp	= 3.3
 +supplyn	= 0
 vd		vdd 	gnd dc supplyp
 vs		vss 	gnd dc supplyn







 *.tran 1us 20ms
 *.ic v(1) = 3.3
 **.ic v(4) = 0

 *.alter
 *.lib 'test.l'  noib


 .alter


 **warning**  the accurate option increases  the cpu time but the results
                are more accurate.
 ***accurate option sets default value of the options: 
 lvltim= 4         dvdt= 3       relvar= 200.00m absvar= 200.00m
     ft= 200.00m relmos=  10.00m
 (used for FFT control ) fft_accurate= 1
1****** HSPICE -- B-2008.09-SP1 32-BIT (Nov 24 2008) linux ******               
 ******  
 ***current mirror

  ******  circuit name directory
 circuit number to circuit name directory
   number circuitname                     definition         multiplier
        0 main circuit
        1 xcmb.                           cmb_bete5          1.00 
 

 
      
  Opening plot unit= 15
 file=ImirrorBias.pa0                                                          


          ***** job concluded
1****** HSPICE -- B-2008.09-SP1 32-BIT (Nov 24 2008) linux ******               
 ******  
 ***current mirror

  ******  job statistics summary tnom=  25.000 temp=  25.000 *****

  ******  HSPICE Threads Information  ******
  Command Line Threads Count:                      0
  Available CPU Count:                             8
  Actual Model Evaluation(Load) Threads Count:     1
  Actual Solver Threads Count:                     1


  ******  Circuit Statistics  ******
  # nodes       =      16  # elements   =      10
  # resistors   =       0  # capacitors =       0  # inductors   =       0
  # mutual_inds =       0  # vccs       =       0  # vcvs        =       0
  # cccs        =       0  # ccvs       =       0  # volt_srcs   =       4
  # curr_srcs   =       2  # diodes     =       0  # bjts        =       0
  # jfets       =       0  # mosfets    =       4  # U elements  =       0
  # T elements  =       0  # W elements =       0  # B elements  =       0
  # S elements  =       0  # P elements =       0  # va device   =       0


  ******  Runtime Statistics (seconds)  ******

  analysis           time    # points   tot. iter  conv.iter
  op point           0.00           1           0
  readin             0.04
  errchk             0.01
  setup              0.00
  output             0.00


           total memory used          599  kbytes
           total cpu time            0.05 seconds
           total elapsed time        0.36 seconds
           job started at     18:16:26 04/12/2016
           job ended   at     18:16:26 04/12/2016


1****** HSPICE -- B-2008.09-SP1 32-BIT (Nov 24 2008) linux ******               
 ******  
 

  ******    alter processing listing tnom=  25.000 temp=  25.000 *****
 .del lib 'test.l'  noib
 .lib 'test.l' closed

     .op
     .param rr = 1x
     vaci cn opb1 dc = 0 ac = 1
     vopx vop mpx dc = 0

     xib vdd vss  opb1 mpx mpy ibias rin = rr
     xop1 vdd vss mpy cn vop cn cp opnw2

     .ac dec 1000 1 1000g sweep rr dec 1 1k 1x
     .dc rr dec 100 1k 10000k
     .probe dc i(xib.mp) i(xib.rio) rdsp=par('1/(lx8(xib.mp) + lx8(xib.mn))') gmp=par('lx7(xib.mp)')  gainib=par('gmp*rdsp') par'1/lx8(xop1.mr1)'
     + lx2(xop1.mr1) i(xib.eio)
     .probe ac i(xib.rio) rdsp=par('1/(lx8(xib.mp) + lx8(xib.mn))') gmp=par('lx7(xib.mp)')  gainib=par('gmp*rdsp')  i(xib.eio)

     .noise i(xib.eio) vaci

 .endl
 *
 *
 .alter
 $ alter processing continues $


 **warning**  the accurate option increases  the cpu time but the results
                are more accurate.
 ***accurate option sets default value of the options: 
 lvltim= 4         dvdt= 3       relvar= 200.00m absvar= 200.00m
     ft= 200.00m relmos=  10.00m
 (used for FFT control ) fft_accurate= 1
1****** HSPICE -- B-2008.09-SP1 32-BIT (Nov 24 2008) linux ******               
 ******  
 ***current mirror

  ******  circuit name directory
 circuit number to circuit name directory
   number circuitname                     definition         multiplier
        0 main circuit
        1 xcmb.                           cmb_bete5          1.00 
        2 xib.                            ibias              1.00 
        3 xop1.                           opnw2              1.00 
 **warning** could not find branch element     2:rio             
      branch - output ignored
 **warning** could not find branch element     2:rio             
      branch - output ignored
 
      
  Opening plot unit= 15
 file=ImirrorBias.pa1                                                          

  *** initial damped pseudo transient completed. ***
  *** final try started ***
1****** HSPICE -- B-2008.09-SP1 32-BIT (Nov 24 2008) linux ******               
 ******  
 ***current mirror

  ******  operating point information tnom=  25.000 temp=  25.000 *****
 ***** operating point status is all       simulation time is     0.     
    node    =voltage      node    =voltage      node    =voltage

 +0:cn      =   0.6943  0:cp      =   2.2940  0:mpx     =   2.5349 
 +0:mpy     =   0.6941  0:opb1    =   0.6943  0:vdd     =   3.3000 
 +0:vdt     =   2.0000  0:vgt     =   1.5000  0:vop     =   2.5349 
 +0:vss     =   0.      0:vst     =   0.9928  2:io      =   0.6943 
 +2:rx      =   0.2729  3:1       =   2.5569  3:b       =   0.3174 
 +3:cn2     =   0.3539  3:cp2     =   2.3672  3:cr1     =   0.3499 
 +3:cr2     =   2.5205  3:rb      =   1.7283  3:xx      =   2.5569 


 maximum nodal capacitance=   2.708E-13         on node     0:vss             

    nodal  capacitance table 

    node    =    cap      node    =    cap      node    =    cap

 +0:cn      = 1.074e-13 0:cp      = 2.900e-14 0:mpx     = 4.766e-15
 +0:mpy     = 6.563e-14 0:opb1    = 1.330e-14 0:vdd     = 1.891e-13
 +0:vdt     = 5.702e-15 0:vgt     = 7.187e-14 0:vop     = 2.385e-13
 +0:vss     = 2.708e-13 0:vst     = 1.215e-13 2:io      = 1.503e-15
 +2:rx      = 1.909e-14 3:1       = 3.081e-14 3:b       = 1.545e-14
 +3:cn2     = 4.103e-14 3:cp2     = 4.157e-14 3:cr1     = 6.278e-15
 +3:cr2     = 2.266e-14 3:rb      = 1.546e-14 3:xx      = 2.027e-13

 

 ****  voltage sources

 subckt                                                                    
 element  0:vtd      0:vtg      0:vd       0:vs       0:vaci     0:vopx    
  volts      2.0000     1.5000     3.3000     0.         0.         0.     
  current -1.000e-06    0.      -6.112e-06  7.044e-06    0.         0.     
  power    2.000e-06    0.       2.017e-05    0.         0.         0.     

     total voltage source power dissipation=  2.217e-05       watts



 ***** current sources

 subckt                        
 element  0:iin      0:it      
  volts      2.2940     0.9928 
  current  1.000e-06  1.000e-06
  power   -2.294e-06 -9.928e-07


     total current source power dissipation=-3.287e-06       watts

 **** resistors

 subckt   xib       
 element  2:r1      
  r value  1.000e+06
  v drop     0.2729 
  current  2.729e-07
  power    7.448e-08


 **** voltage-controlled voltage sources


 subckt     xib     
 element  2:eio     
  volts      0.6943 
  current  6.822e-08





 **** mosfets


 subckt              xcmb       xcmb       xcmb       xib        xib       
 element  0:mt       1:mc0      1:mc1      1:mc2      2:mp       2:mpb     
 model    0:nch.1    0:pch.2    0:pch.2    0:nch.1    0:pch.6    0:pch.6   
 region     Saturati   Saturati   Saturati   Saturati     Cutoff     Cutoff
  id       1.000e-06 -1.000e-06 -4.598e-06  4.598e-06 -2.729e-07 -6.822e-08
  ibs     -1.600e-18  2.118e-19  9.738e-19 -7.712e-18  5.978e-20  1.494e-20
  ibd     -7.095e-15  1.634e-16  5.561e-11 -5.247e-15  1.081e-11  2.699e-12
  vgs        0.5072    -1.0060    -1.0060     0.6943    -0.7651    -0.7651 
  vds        1.0072    -1.0060    -2.6057     0.6943    -2.6059    -2.6057 
  vbs        0.         0.         0.         0.         0.         0.     
  vth        0.4375    -0.8702    -0.8596     0.4356    -0.8303    -0.8303 
  vdsat      0.1142    -0.1814    -0.1900     0.2567  -6.551e-02 -6.551e-02
  vod      6.972e-02   -0.1358    -0.1464     0.2587   6.517e-02  6.518e-02
  beta     2.039e-04  7.284e-05  2.918e-04  1.383e-04  3.520e-04  8.801e-05
  gam eff    0.4621     0.3947     0.3947     0.4573     0.4029     0.4029 
  gm       1.448e-05  1.047e-05  4.628e-05  3.177e-05  4.881e-06  1.220e-06
  gds      1.956e-08  1.030e-07  3.588e-07  5.536e-08  8.248e-08  2.062e-08
  gmb      4.344e-06  2.277e-06  1.005e-05  9.283e-06  1.072e-06  2.680e-07
  cdtot    5.702e-15  2.598e-15  7.994e-15  4.298e-15  6.010e-15  1.503e-15
  cgtot    7.187e-14  5.280e-15  2.112e-14  6.110e-14  3.813e-15  9.532e-16
  cstot    8.029e-14  8.408e-15  3.363e-14  7.363e-14  1.071e-14  2.677e-15
  cbtot    4.118e-14  7.331e-15  2.692e-14  3.051e-14  1.746e-14  4.364e-15
  cgs      5.595e-14  4.120e-15  1.648e-14  5.238e-14  7.686e-16  1.922e-16
  cgd      1.046e-15  2.837e-16  1.135e-15  7.365e-16  7.686e-16  1.922e-16



 subckt   xib        xop1       xop1       xop1       xop1       xop1      
 element  2:mn       3:mc1      3:mc2      3:mc3      3:m1       3:m2      
 model    0:nch.3    0:pch.4    0:nch.3    0:nch.2    0:nch.1    0:nch.1   
 region       Cutoff   Saturati     Cutoff     Cutoff     Cutoff     Cutoff
  id       2.729e-07 -4.690e-08  4.685e-08  4.687e-08  2.326e-08  2.335e-08
  ibs     -2.116e-14  1.027e-20 -3.673e-14 -8.753e-20 -7.055e-15 -7.055e-15
  ibd     -2.116e-14  1.159e-16 -1.402e-11 -3.438e-15 -5.235e-12 -4.732e-12
  vgs        0.4214    -0.9328     0.3405     0.3539     0.3767     0.3769 
  vds        0.4212    -0.9328     2.0133     0.3539     2.2395     2.2175 
  vbs       -0.2729     0.        -0.3539     0.        -0.3174    -0.3174 
  vth        0.5440    -0.8888     0.5520     0.4524     0.5335     0.5335 
  vdsat    4.510e-02   -0.1105   4.389e-02  4.559e-02  4.456e-02  4.457e-02
  vod       -0.1225  -4.398e-02   -0.2116  -9.855e-02   -0.1568    -0.1566 
  beta     6.649e-03  1.106e-05  1.061e-02  4.027e-04  5.292e-04  5.292e-04
  gam eff    0.5246     0.3553     0.5203     0.4612     0.4538     0.4538 
  gm       7.310e-06  6.367e-07  1.348e-06  1.160e-06  6.022e-07  6.044e-07
  gds      9.617e-08  1.788e-09  1.476e-08  6.853e-09  2.243e-09  2.204e-09
  gmb      1.879e-06  1.478e-07  3.400e-07  3.449e-07  1.591e-07  1.596e-07
  cdtot    1.779e-14  1.987e-15  2.598e-14  2.816e-15  5.059e-15  5.065e-15
  cgtot    1.330e-14  1.361e-14  2.216e-14  3.216e-15  1.184e-14  1.184e-14
  cstot    1.909e-14  1.332e-14  3.178e-14  3.054e-15  6.308e-15  6.308e-15
  cbtot    3.763e-14  1.086e-14  5.929e-14  7.377e-15  1.902e-14  1.903e-14
  cgs      3.138e-15  8.667e-15  5.155e-15  4.270e-16  1.046e-15  1.046e-15
  cgd      3.138e-15  1.922e-16  5.155e-15  4.270e-16  1.046e-15  1.046e-15



 subckt   xop1       xop1       xop1       xop1       xop1       xop1      
 element  3:m3       3:m4       3:mb       3:mr1      3:mcr1     3:mcr4    
 model    0:pch.2    0:pch.2    0:nch.2    0:pch.4    0:pch.2    0:pch.5   
 region       Cutoff     Cutoff     Cutoff     Cutoff     Cutoff     Cutoff
  id      -2.327e-08 -2.336e-08  4.661e-08 -4.925e-18 -3.240e-08 -4.722e-08
  ibs      4.844e-21  4.862e-21 -8.705e-20    0.       6.745e-21  1.034e-20
  ibd      2.059e-16  2.059e-16 -3.438e-15  9.079e-26  1.600e-12  2.318e-16
  vgs       -0.7431    -0.7431     0.3539    -0.8286    -0.7431    -0.7922 
  vds       -0.7431    -0.7651     0.3174  -2.012e-11   -2.9501    -0.7922 
  vbs        0.         0.         0.         0.         0.         0.     
  vth       -0.8669    -0.8667     0.4525    -0.8907    -0.8522    -0.8784 
  vdsat   -5.549e-02 -5.551e-02  4.558e-02 -6.668e-02 -5.755e-02 -6.197e-02
  vod        0.1238     0.1236  -9.863e-02  6.211e-02    0.1091   8.620e-02
  beta     1.033e-04  1.033e-04  4.027e-04  1.114e-05  1.037e-04  9.555e-05
  gam eff    0.3948     0.3948     0.4612     0.3553     0.3948     0.3889 
  gm       4.601e-07  4.617e-07  1.154e-06  6.195e-17  6.270e-07  8.633e-07
  gds      4.008e-09  3.999e-09  7.068e-09  2.448e-07  4.534e-09  6.917e-09
  gmb      1.048e-07  1.052e-07  3.431e-07  1.539e-17  1.427e-07  1.957e-07
  cdtot    3.455e-15  3.436e-15  2.835e-15  2.677e-15  2.396e-15  4.112e-15
  cgtot    2.777e-15  2.777e-15  3.216e-15  6.708e-15  2.777e-15  3.209e-15
  cstot    4.448e-15  4.448e-15  3.054e-15  2.677e-15  4.448e-15  5.353e-15
  cbtot    9.180e-15  9.161e-15  7.396e-15  1.129e-14  8.121e-15  1.114e-14
  cgs      3.751e-16  3.751e-16  4.270e-16  1.922e-16  3.751e-16  3.843e-16
  cgd      3.751e-16  3.751e-16  4.270e-16  1.922e-16  3.751e-16  3.843e-16



 subckt   xop1       xop1       xop1      
 element  3:mcr5     3:mcr2     3:mcr3    
 model    0:pch.2    0:nch.6    0:nch.6   
 region       Cutoff     Cutoff     Cutoff
  id      -4.722e-08  3.240e-08  4.721e-08
  ibs      9.830e-21 -7.347e-20 -1.071e-19
  ibd      2.059e-16 -2.233e-15 -2.017e-12
  vgs       -0.7795     0.3499     0.3499 
  vds       -0.7795     0.3499     1.7283 
  vbs        0.         0.         0.     
  vth       -0.8666     0.4539     0.4474 
  vdsat   -6.151e-02  4.476e-02  4.524e-02
  vod      8.714e-02   -0.1040  -9.744e-02
  beta     1.032e-04  3.748e-04  3.749e-04
  gam eff    0.3948     0.4931     0.4931 
  gm       8.885e-07  8.281e-07  1.188e-06
  gds      7.762e-09  1.025e-08  1.194e-08
  gmb      2.017e-07  2.391e-07  3.413e-07
  cdtot    3.423e-15  1.668e-15  1.430e-15
  cgtot    2.751e-15  1.107e-15  1.107e-15
  cstot    4.448e-15  1.803e-15  1.803e-15
  cbtot    9.121e-15  3.695e-15  3.458e-15
  cgs      3.751e-16  2.207e-16  2.207e-16
  cgd      3.751e-16  2.207e-16  2.207e-16



  *** initial damped pseudo transient completed. ***
  *** final try started ***
1****** HSPICE -- B-2008.09-SP1 32-BIT (Nov 24 2008) linux ******               
 ******  
 ***current mirror

  ******  ac analysis tnom=  25.000 temp=  25.000 *****
 ***** operating point status is all       simulation time is     0.     

   *** parameter rr               =    1.000E+03 ***

    node    =voltage      node    =voltage      node    =voltage

 +0:cn      =   0.6943  0:cp      =   2.2940  0:mpx     =   1.8453 
 +0:mpy     =   0.6877  0:opb1    =   0.6943  0:vdd     =   3.3000 
 +0:vdt     =   2.0000  0:vgt     =   1.5000  0:vop     =   1.8453 
 +0:vss     =   0.      0:vst     =   0.9928  2:io      =   0.6943 
 +2:rx      = 6.697e-02 3:1       =   2.5598  3:b       =   0.3141 
 +3:cn2     =   0.3539  3:cp2     =   2.3672  3:cr1     =   0.3478 
 +3:cr2     =   2.5233  3:rb      =   1.7339  3:xx      =   2.5598 


 maximum nodal capacitance=   2.736E-13         on node     0:vss             

    nodal  capacitance table 

    node    =    cap      node    =    cap      node    =    cap

 +0:cn      = 1.074e-13 0:cp      = 2.900e-14 0:mpx     = 1.001e-14
 +0:mpy     = 6.566e-14 0:opb1    = 2.824e-14 0:vdd     = 1.969e-13
 +0:vdt     = 5.702e-15 0:vgt     = 7.187e-14 0:vop     = 2.383e-13
 +0:vss     = 2.736e-13 0:vst     = 1.215e-13 2:io      = 1.503e-15
 +2:rx      = 4.507e-14 3:1       = 3.083e-14 3:b       = 1.546e-14
 +3:cn2     = 4.103e-14 3:cp2     = 4.157e-14 3:cr1     = 6.279e-15
 +3:cr2     = 2.267e-14 3:rb      = 1.547e-14 3:xx      = 2.027e-13

 

 ****  voltage sources

 subckt                                                                    
 element  0:vtd      0:vtg      0:vd       0:vs       0:vaci     0:vopx    
  volts      2.0000     1.5000     3.3000     0.         0.         0.     
  current -1.000e-06    0.      -8.947e-05  7.374e-05    0.       5.551e-17
  power    2.000e-06    0.       2.953e-04    0.         0.         0.     

     total voltage source power dissipation=  2.973e-04       watts



 ***** current sources

 subckt                        
 element  0:iin      0:it      
  volts      2.2940     0.9928 
  current  1.000e-06  1.000e-06
  power   -2.294e-06 -9.928e-07


     total current source power dissipation=-3.287e-06       watts

 **** resistors

 subckt   xib       
 element  2:r1      
  r value  1.000e+03
  v drop   6.697e-02
  current  6.697e-05
  power    4.485e-06


 **** voltage-controlled voltage sources


 subckt     xib     
 element  2:eio     
  volts      0.6943 
  current  1.673e-05





 **** mosfets


 subckt              xcmb       xcmb       xcmb       xib        xib       
 element  0:mt       1:mc0      1:mc1      1:mc2      2:mp       2:mpb     
 model    0:nch.1    0:pch.2    0:pch.2    0:nch.1    0:pch.6    0:pch.6   
 region     Saturati   Saturati   Saturati   Saturati   Saturati   Saturati
  id       1.000e-06 -1.000e-06 -4.598e-06  4.598e-06 -6.697e-05 -1.673e-05
  ibs     -1.600e-18  2.118e-19  9.738e-19 -7.712e-18  1.444e-17  3.609e-18
  ibd     -7.095e-15  1.634e-16  5.561e-11 -5.247e-15  3.498e-10  8.466e-11
  vgs        0.5072    -1.0060    -1.0060     0.6943    -1.4547    -1.4547 
  vds        1.0072    -1.0060    -2.6057     0.6943    -2.6123    -2.6057 
  vbs        0.         0.         0.         0.         0.         0.     
  vth        0.4375    -0.8702    -0.8596     0.4356    -0.8304    -0.8305 
  vdsat      0.1142    -0.1814    -0.1900     0.2567    -0.5875    -0.5874 
  vod      6.972e-02   -0.1358    -0.1464     0.2587    -0.6244    -0.6243 
  beta     2.039e-04  7.284e-05  2.918e-04  1.383e-04  3.234e-04  8.085e-05
  gam eff    0.4621     0.3947     0.3947     0.4573     0.4029     0.4029 
  gm       1.448e-05  1.047e-05  4.628e-05  3.177e-05  1.906e-04  4.764e-05
  gds      1.956e-08  1.030e-07  3.588e-07  5.536e-08  4.674e-06  1.170e-06
  gmb      4.344e-06  2.277e-06  1.005e-05  9.283e-06  3.980e-05  9.946e-06
  cdtot    5.702e-15  2.598e-15  7.994e-15  4.298e-15  6.006e-15  1.503e-15
  cgtot    7.187e-14  5.280e-15  2.112e-14  6.110e-14  8.011e-15  2.003e-15
  cstot    8.029e-14  8.408e-15  3.363e-14  7.363e-14  1.727e-14  4.316e-15
  cbtot    4.118e-14  7.331e-15  2.692e-14  3.051e-14  1.756e-14  4.392e-15
  cgs      5.595e-14  4.120e-15  1.648e-14  5.238e-14  6.013e-15  1.503e-15
  cgd      1.046e-15  2.837e-16  1.135e-15  7.365e-16  7.686e-16  1.922e-16



 subckt   xib        xop1       xop1       xop1       xop1       xop1      
 element  2:mn       3:mc1      3:mc2      3:mc3      3:m1       3:m2      
 model    0:nch.3    0:pch.4    0:nch.3    0:nch.2    0:nch.1    0:nch.1   
 region     Saturati   Saturati     Cutoff     Cutoff     Cutoff     Cutoff
  id       6.697e-05 -4.690e-08  4.685e-08  4.687e-08  2.195e-08  2.464e-08
  ibs     -1.961e-14  1.027e-20 -3.673e-14 -8.753e-20 -7.055e-15 -7.055e-15
  ibd     -2.117e-14  1.159e-16 -1.402e-11 -3.438e-15 -5.088e-12 -4.924e-14
  vgs        0.6274    -0.9328     0.3405     0.3539     0.3736     0.3802 
  vds        0.6207    -0.9328     2.0133     0.3539     2.2457     1.5312 
  vbs     -6.697e-02    0.        -0.3539     0.        -0.3141    -0.3141 
  vth        0.4883    -0.8888     0.5520     0.4524     0.5326     0.5336 
  vdsat      0.1456    -0.1105   4.389e-02  4.559e-02  4.447e-02  4.469e-02
  vod        0.1390  -4.398e-02   -0.2116  -9.855e-02   -0.1591    -0.1534 
  beta     6.632e-03  1.106e-05  1.061e-02  4.027e-04  5.292e-04  5.292e-04
  gam eff    0.5253     0.3553     0.5203     0.4612     0.4539     0.4539 
  gm       8.193e-04  6.367e-07  1.348e-06  1.160e-06  5.703e-07  6.346e-07
  gds      1.042e-05  1.788e-09  1.476e-08  6.853e-09  2.134e-09  1.784e-09
  gmb      2.191e-04  1.478e-07  3.400e-07  3.449e-07  1.509e-07  1.677e-07
  cdtot    1.780e-14  1.987e-15  2.598e-14  2.816e-15  5.058e-15  5.291e-15
  cgtot    2.824e-14  1.361e-14  2.216e-14  3.216e-15  1.186e-14  1.184e-14
  cstot    4.507e-14  1.332e-14  3.178e-14  3.054e-15  6.312e-15  6.312e-15
  cbtot    4.020e-14  1.086e-14  5.929e-14  7.377e-15  1.904e-14  1.926e-14
  cgs      2.188e-14  8.667e-15  5.155e-15  4.270e-16  1.046e-15  1.046e-15
  cgd      3.138e-15  1.922e-16  5.155e-15  4.270e-16  1.046e-15  1.046e-15



 subckt   xop1       xop1       xop1       xop1       xop1       xop1      
 element  3:m3       3:m4       3:mb       3:mr1      3:mcr1     3:mcr4    
 model    0:pch.2    0:pch.2    0:nch.2    0:pch.4    0:pch.2    0:pch.5   
 region       Cutoff     Cutoff     Cutoff     Cutoff     Cutoff     Cutoff
  id      -2.196e-08 -2.464e-08  4.659e-08  1.102e-18 -3.063e-08 -4.478e-08
  ibs      4.571e-21  5.129e-21 -8.701e-20    0.       6.378e-21  9.810e-21
  ibd      2.059e-16  9.751e-16 -3.438e-15 -2.104e-26  1.523e-12  2.318e-16
  vgs       -0.7402    -0.7402     0.3539    -0.8259    -0.7402    -0.7893 
  vds       -0.7402    -1.4547     0.3141   4.662e-12   -2.9522    -0.7893 
  vbs        0.         0.         0.         0.         0.         0.     
  vth       -0.8669    -0.8622     0.4525    -0.8907    -0.8522    -0.8784 
  vdsat   -5.513e-02 -5.572e-02  4.558e-02 -6.595e-02 -5.711e-02 -6.137e-02
  vod        0.1267     0.1220  -9.863e-02  6.487e-02    0.1120   8.909e-02
  beta     1.033e-04  1.034e-04  4.027e-04  1.114e-05  1.037e-04  9.556e-05
  gam eff    0.3948     0.3948     0.4612     0.3553     0.3948     0.3889 
  gm       4.360e-07  4.858e-07  1.153e-06  1.396e-17  5.953e-07  8.215e-07
  gds      3.798e-09  3.771e-09  7.092e-09  2.364e-07  4.304e-09  6.581e-09
  gmb      9.934e-08  1.107e-07  3.430e-07  3.470e-18  1.355e-07  1.863e-07
  cdtot    3.458e-15  2.960e-15  2.837e-15  2.677e-15  2.396e-15  4.115e-15
  cgtot    2.780e-15  2.780e-15  3.216e-15  6.713e-15  2.780e-15  3.211e-15
  cstot    4.448e-15  4.448e-15  3.054e-15  2.677e-15  4.448e-15  5.353e-15
  cbtot    9.185e-15  8.687e-15  7.398e-15  1.130e-14  8.123e-15  1.114e-14
  cgs      3.751e-16  3.751e-16  4.270e-16  1.922e-16  3.751e-16  3.843e-16
  cgd      3.751e-16  3.751e-16  4.270e-16  1.922e-16  3.751e-16  3.843e-16



 subckt   xop1       xop1       xop1      
 element  3:mcr5     3:mcr2     3:mcr3    
 model    0:pch.2    0:nch.6    0:nch.6   
 region       Cutoff     Cutoff     Cutoff
  id      -4.478e-08  3.064e-08  4.478e-08
  ibs      9.322e-21 -6.948e-20 -1.015e-19
  ibd      2.059e-16 -2.233e-15 -2.003e-12
  vgs       -0.7767     0.3478     0.3478 
  vds       -0.7767     0.3478     1.7339 
  vbs        0.         0.         0.     
  vth       -0.8667     0.4539     0.4474 
  vdsat   -6.094e-02  4.462e-02  4.508e-02
  vod      8.995e-02   -0.1061  -9.958e-02
  beta     1.032e-04  3.748e-04  3.749e-04
  gam eff    0.3948     0.4931     0.4931 
  gm       8.456e-07  7.850e-07  1.130e-06
  gds      7.386e-09  9.725e-09  1.135e-08
  gmb      1.920e-07  2.268e-07  3.248e-07
  cdtot    3.425e-15  1.668e-15  1.430e-15
  cgtot    2.753e-15  1.108e-15  1.108e-15
  cstot    4.448e-15  1.803e-15  1.803e-15
  cbtot    9.126e-15  3.696e-15  3.457e-15
  cgs      3.751e-16  2.207e-16  2.207e-16
  cgd      3.751e-16  2.207e-16  2.207e-16






 **** the results of the sqrt of integral (I**2 / freq)
      using more points from fstart to fstop 
      results in more accurate total noise values.

 **** total output noise current   =  4.675e-06       amps
 **** total equivalent input noise =  2.234e-03      

          ***** job concluded
  *** initial damped pseudo transient completed. ***
  *** final try started ***
1****** HSPICE -- B-2008.09-SP1 32-BIT (Nov 24 2008) linux ******               
 ******  
 ***current mirror

  ******  ac analysis tnom=  25.000 temp=  25.000 *****
 ***** operating point status is all       simulation time is     0.     

   *** parameter rr               =    1.000E+04 ***

    node    =voltage      node    =voltage      node    =voltage

 +0:cn      =   0.6943  0:cp      =   2.2940  0:mpx     =   2.2082 
 +0:mpy     =   0.6909  0:opb1    =   0.6943  0:vdd     =   3.3000 
 +0:vdt     =   2.0000  0:vgt     =   1.5000  0:vop     =   2.2082 
 +0:vss     =   0.      0:vst     =   0.9928  2:io      =   0.6943 
 +2:rx      =   0.1431  3:1       =   2.5583  3:b       =   0.3157 
 +3:cn2     =   0.3539  3:cp2     =   2.3672  3:cr1     =   0.3489 
 +3:cr2     =   2.5218  3:rb      =   1.7310  3:xx      =   2.5583 


 maximum nodal capacitance=   2.722E-13         on node     0:vss             

    nodal  capacitance table 

    node    =    cap      node    =    cap      node    =    cap

 +0:cn      = 1.074e-13 0:cp      = 2.900e-14 0:mpx     = 9.949e-15
 +0:mpy     = 6.565e-14 0:opb1    = 2.199e-14 0:vdd     = 1.971e-13
 +0:vdt     = 5.702e-15 0:vgt     = 7.187e-14 0:vop     = 2.383e-13
 +0:vss     = 2.722e-13 0:vst     = 1.215e-13 2:io      = 1.503e-15
 +2:rx      = 3.408e-14 3:1       = 3.082e-14 3:b       = 1.546e-14
 +3:cn2     = 4.103e-14 3:cp2     = 4.157e-14 3:cr1     = 6.279e-15
 +3:cr2     = 2.267e-14 3:rb      = 1.546e-14 3:xx      = 2.027e-13

 

 ****  voltage sources

 subckt                                                                    
 element  0:vtd      0:vtg      0:vd       0:vs       0:vaci     0:vopx    
  volts      2.0000     1.5000     3.3000     0.         0.         0.     
  current -1.000e-06    0.      -2.365e-05  2.107e-05    0.         0.     
  power    2.000e-06    0.       7.804e-05    0.         0.         0.     

     total voltage source power dissipation=  8.004e-05       watts



 ***** current sources

 subckt                        
 element  0:iin      0:it      
  volts      2.2940     0.9928 
  current  1.000e-06  1.000e-06
  power   -2.294e-06 -9.928e-07


     total current source power dissipation=-3.287e-06       watts

 **** resistors

 subckt   xib       
 element  2:r1      
  r value  1.000e+04
  v drop     0.1431 
  current  1.431e-05
  power    2.047e-06


 **** voltage-controlled voltage sources


 subckt     xib     
 element  2:eio     
  volts      0.6943 
  current  3.575e-06





 **** mosfets


 subckt              xcmb       xcmb       xcmb       xib        xib       
 element  0:mt       1:mc0      1:mc1      1:mc2      2:mp       2:mpb     
 model    0:nch.1    0:pch.2    0:pch.2    0:nch.1    0:pch.6    0:pch.6   
 region     Saturati   Saturati   Saturati   Saturati   Saturati   Saturati
  id       1.000e-06 -1.000e-06 -4.598e-06  4.598e-06 -1.431e-05 -3.575e-06
  ibs     -1.600e-18  2.118e-19  9.738e-19 -7.712e-18  3.124e-18  7.806e-19
  ibd     -7.095e-15  1.634e-16  5.561e-11 -5.247e-15  2.733e-10  6.744e-11
  vgs        0.5072    -1.0060    -1.0060     0.6943    -1.0918    -1.0918 
  vds        1.0072    -1.0060    -2.6057     0.6943    -2.6091    -2.6057 
  vbs        0.         0.         0.         0.         0.         0.     
  vth        0.4375    -0.8702    -0.8596     0.4356    -0.8303    -0.8303 
  vdsat      0.1142    -0.1814    -0.1900     0.2567    -0.2804    -0.2804 
  vod      6.972e-02   -0.1358    -0.1464     0.2587    -0.2616    -0.2615 
  beta     2.039e-04  7.284e-05  2.918e-04  1.383e-04  3.407e-04  8.517e-05
  gam eff    0.4621     0.3947     0.3947     0.4573     0.4029     0.4029 
  gm       1.448e-05  1.047e-05  4.628e-05  3.177e-05  9.463e-05  2.365e-05
  gds      1.956e-08  1.030e-07  3.588e-07  5.536e-08  1.794e-06  4.486e-07
  gmb      4.344e-06  2.277e-06  1.005e-05  9.283e-06  1.968e-05  4.919e-06
  cdtot    5.702e-15  2.598e-15  7.994e-15  4.298e-15  6.008e-15  1.503e-15
  cgtot    7.187e-14  5.280e-15  2.112e-14  6.110e-14  7.959e-15  1.990e-15
  cstot    8.029e-14  8.408e-15  3.363e-14  7.363e-14  1.719e-14  4.297e-15
  cbtot    4.118e-14  7.331e-15  2.692e-14  3.051e-14  1.760e-14  4.401e-15
  cgs      5.595e-14  4.120e-15  1.648e-14  5.238e-14  5.914e-15  1.478e-15
  cgd      1.046e-15  2.837e-16  1.135e-15  7.365e-16  7.686e-16  1.922e-16



 subckt   xib        xop1       xop1       xop1       xop1       xop1      
 element  2:mn       3:mc1      3:mc2      3:mc3      3:m1       3:m2      
 model    0:nch.3    0:pch.4    0:nch.3    0:nch.2    0:nch.1    0:nch.1   
 region     Saturati   Saturati     Cutoff     Cutoff     Cutoff     Cutoff
  id       1.431e-05 -4.690e-08  4.685e-08  4.687e-08  2.262e-08  2.398e-08
  ibs     -2.108e-14  1.027e-20 -3.673e-14 -8.753e-20 -7.055e-15 -7.055e-15
  ibd     -2.116e-14  1.159e-16 -1.402e-11 -3.438e-15 -5.165e-12 -7.824e-13
  vgs        0.5513    -0.9328     0.3405     0.3539     0.3752     0.3786 
  vds        0.5479    -0.9328     2.0133     0.3539     2.2426     1.8924 
  vbs       -0.1431     0.        -0.3539     0.        -0.3157    -0.3157 
  vth        0.5095    -0.8888     0.5520     0.4524     0.5331     0.5336 
  vdsat    8.226e-02   -0.1105   4.389e-02  4.559e-02  4.452e-02  4.463e-02
  vod      4.179e-02 -4.398e-02   -0.2116  -9.855e-02   -0.1579    -0.1550 
  beta     6.652e-03  1.106e-05  1.061e-02  4.027e-04  5.292e-04  5.292e-04
  gam eff    0.5251     0.3553     0.5203     0.4612     0.4539     0.4539 
  gm       2.836e-04  6.367e-07  1.348e-06  1.160e-06  5.867e-07  6.191e-07
  gds      3.423e-06  1.788e-09  1.476e-08  6.853e-09  2.190e-09  1.839e-09
  gmb      7.385e-05  1.478e-07  3.400e-07  3.449e-07  1.551e-07  1.636e-07
  cdtot    1.779e-14  1.987e-15  2.598e-14  2.816e-15  5.058e-15  5.163e-15
  cgtot    2.199e-14  1.361e-14  2.216e-14  3.216e-15  1.185e-14  1.184e-14
  cstot    3.408e-14  1.332e-14  3.178e-14  3.054e-15  6.310e-15  6.310e-15
  cbtot    3.901e-14  1.086e-14  5.929e-14  7.377e-15  1.903e-14  1.913e-14
  cgs      1.404e-14  8.667e-15  5.155e-15  4.270e-16  1.046e-15  1.046e-15
  cgd      3.138e-15  1.922e-16  5.155e-15  4.270e-16  1.046e-15  1.046e-15



 subckt   xop1       xop1       xop1       xop1       xop1       xop1      
 element  3:m3       3:m4       3:mb       3:mr1      3:mcr1     3:mcr4    
 model    0:pch.2    0:pch.2    0:nch.2    0:pch.4    0:pch.2    0:pch.5   
 region       Cutoff     Cutoff     Cutoff     Cutoff     Cutoff     Cutoff
  id      -2.263e-08 -2.398e-08  4.660e-08 -2.850e-18 -3.154e-08 -4.603e-08
  ibs      4.711e-21  4.992e-21 -8.703e-20    0.       6.566e-21  1.008e-20
  ibd      2.059e-16  2.121e-16 -3.438e-15  5.342e-26  1.562e-12  2.318e-16
  vgs       -0.7417    -0.7417     0.3539    -0.8273    -0.7417    -0.7908 
  vds       -0.7417    -1.0918     0.3157  -1.184e-11   -2.9511    -0.7908 
  vbs        0.         0.         0.         0.         0.         0.     
  vth       -0.8669    -0.8646     0.4525    -0.8907    -0.8522    -0.8784 
  vdsat   -5.531e-02 -5.561e-02  4.558e-02 -6.632e-02 -5.734e-02 -6.168e-02
  vod        0.1252     0.1229  -9.863e-02  6.344e-02    0.1105   8.759e-02
  beta     1.033e-04  1.033e-04  4.027e-04  1.114e-05  1.037e-04  9.555e-05
  gam eff    0.3948     0.3948     0.4612     0.3553     0.3948     0.3889 
  gm       4.483e-07  4.735e-07  1.154e-06  3.597e-17  6.115e-07  8.429e-07
  gds      3.905e-09  3.841e-09  7.080e-09  2.407e-07  4.422e-09  6.753e-09
  gmb      1.021e-07  1.079e-07  3.431e-07  8.937e-18  1.392e-07  1.911e-07
  cdtot    3.456e-15  3.181e-15  2.836e-15  2.677e-15  2.396e-15  4.113e-15
  cgtot    2.778e-15  2.778e-15  3.216e-15  6.710e-15  2.778e-15  3.210e-15
  cstot    4.448e-15  4.448e-15  3.054e-15  2.677e-15  4.448e-15  5.353e-15
  cbtot    9.182e-15  8.907e-15  7.397e-15  1.129e-14  8.122e-15  1.114e-14
  cgs      3.751e-16  3.751e-16  4.270e-16  1.922e-16  3.751e-16  3.843e-16
  cgd      3.751e-16  3.751e-16  4.270e-16  1.922e-16  3.751e-16  3.843e-16



 subckt   xop1       xop1       xop1      
 element  3:mcr5     3:mcr2     3:mcr3    
 model    0:pch.2    0:nch.6    0:nch.6   
 region       Cutoff     Cutoff     Cutoff
  id      -4.603e-08  3.154e-08  4.603e-08
  ibs      9.582e-21 -7.152e-20 -1.044e-19
  ibd      2.059e-16 -2.233e-15 -2.011e-12
  vgs       -0.7782     0.3489     0.3489 
  vds       -0.7782     0.3489     1.7310 
  vbs        0.         0.         0.     
  vth       -0.8666     0.4539     0.4474 
  vdsat   -6.123e-02  4.469e-02  4.516e-02
  vod      8.849e-02   -0.1050  -9.847e-02
  beta     1.032e-04  3.748e-04  3.749e-04
  gam eff    0.3948     0.4931     0.4931 
  gm       8.676e-07  8.071e-07  1.160e-06
  gds      7.579e-09  9.995e-09  1.165e-08
  gmb      1.970e-07  2.331e-07  3.332e-07
  cdtot    3.424e-15  1.668e-15  1.430e-15
  cgtot    2.752e-15  1.107e-15  1.107e-15
  cstot    4.448e-15  1.803e-15  1.803e-15
  cbtot    9.123e-15  3.695e-15  3.458e-15
  cgs      3.751e-16  2.207e-16  2.207e-16
  cgd      3.751e-16  2.207e-16  2.207e-16






 **** the results of the sqrt of integral (I**2 / freq)
      using more points from fstart to fstop 
      results in more accurate total noise values.

 **** total output noise current   =  4.644e-06       amps
 **** total equivalent input noise =  2.661e-03      

          ***** job concluded
  *** initial damped pseudo transient completed. ***
  *** final try started ***
1****** HSPICE -- B-2008.09-SP1 32-BIT (Nov 24 2008) linux ******               
 ******  
 ***current mirror

  ******  ac analysis tnom=  25.000 temp=  25.000 *****
 ***** operating point status is all       simulation time is     0.     

   *** parameter rr               =    1.000E+05 ***

    node    =voltage      node    =voltage      node    =voltage

 +0:cn      =   0.6943  0:cp      =   2.2940  0:mpx     =   2.4071 
 +0:mpy     =   0.6928  0:opb1    =   0.6943  0:vdd     =   3.3000 
 +0:vdt     =   2.0000  0:vgt     =   1.5000  0:vop     =   2.4071 
 +0:vss     =   0.      0:vst     =   0.9928  2:io      =   0.6943 
 +2:rx      =   0.2102  3:1       =   2.5575  3:b       =   0.3167 
 +3:cn2     =   0.3539  3:cp2     =   2.3672  3:cr1     =   0.3495 
 +3:cr2     =   2.5210  3:rb      =   1.7294  3:xx      =   2.5575 


 maximum nodal capacitance=   2.711E-13         on node     0:vss             

    nodal  capacitance table 

    node    =    cap      node    =    cap      node    =    cap

 +0:cn      = 1.074e-13 0:cp      = 2.900e-14 0:mpx     = 6.554e-15
 +0:mpy     = 6.564e-14 0:opb1    = 1.330e-14 0:vdd     = 1.918e-13
 +0:vdt     = 5.702e-15 0:vgt     = 7.187e-14 0:vop     = 2.384e-13
 +0:vss     = 2.711e-13 0:vst     = 1.215e-13 2:io      = 1.503e-15
 +2:rx      = 1.935e-14 3:1       = 3.082e-14 3:b       = 1.545e-14
 +3:cn2     = 4.103e-14 3:cp2     = 4.157e-14 3:cr1     = 6.279e-15
 +3:cr2     = 2.267e-14 3:rb      = 1.546e-14 3:xx      = 2.027e-13

 

 ****  voltage sources

 subckt                                                                    
 element  0:vtd      0:vtg      0:vd       0:vs       0:vaci     0:vopx    
  volts      2.0000     1.5000     3.3000     0.         0.         0.     
  current -1.000e-06    0.      -8.398e-06  8.872e-06    0.         0.     
  power    2.000e-06    0.       2.771e-05    0.         0.         0.     

     total voltage source power dissipation=  2.971e-05       watts



 ***** current sources

 subckt                        
 element  0:iin      0:it      
  volts      2.2940     0.9928 
  current  1.000e-06  1.000e-06
  power   -2.294e-06 -9.928e-07


     total current source power dissipation=-3.287e-06       watts

 **** resistors

 subckt   xib       
 element  2:r1      
  r value  1.000e+05
  v drop     0.2102 
  current  2.102e-06
  power    4.420e-07


 **** voltage-controlled voltage sources


 subckt     xib     
 element  2:eio     
  volts      0.6943 
  current  5.254e-07





 **** mosfets


 subckt              xcmb       xcmb       xcmb       xib        xib       
 element  0:mt       1:mc0      1:mc1      1:mc2      2:mp       2:mpb     
 model    0:nch.1    0:pch.2    0:pch.2    0:nch.1    0:pch.6    0:pch.6   
 region     Saturati   Saturati   Saturati   Saturati   Saturati   Saturati
  id       1.000e-06 -1.000e-06 -4.598e-06  4.598e-06 -2.102e-06 -5.254e-07
  ibs     -1.600e-18  2.118e-19  9.738e-19 -7.712e-18  4.604e-19  1.150e-19
  ibd     -7.095e-15  1.634e-16  5.561e-11 -5.247e-15  6.926e-11  1.722e-11
  vgs        0.5072    -1.0060    -1.0060     0.6943    -0.8929    -0.8929 
  vds        1.0072    -1.0060    -2.6057     0.6943    -2.6072    -2.6057 
  vbs        0.         0.         0.         0.         0.         0.     
  vth        0.4375    -0.8702    -0.8596     0.4356    -0.8303    -0.8303 
  vdsat      0.1142    -0.1814    -0.1900     0.2567    -0.1236    -0.1236 
  vod      6.972e-02   -0.1358    -0.1464     0.2587  -6.267e-02 -6.264e-02
  beta     2.039e-04  7.284e-05  2.918e-04  1.383e-04  3.490e-04  8.726e-05
  gam eff    0.4621     0.3947     0.3947     0.4573     0.4029     0.4029 
  gm       1.448e-05  1.047e-05  4.628e-05  3.177e-05  2.846e-05  7.112e-06
  gds      1.956e-08  1.030e-07  3.588e-07  5.536e-08  4.905e-07  1.226e-07
  gmb      4.344e-06  2.277e-06  1.005e-05  9.283e-06  6.073e-06  1.518e-06
  cdtot    5.702e-15  2.598e-15  7.994e-15  4.298e-15  6.010e-15  1.503e-15
  cgtot    7.187e-14  5.280e-15  2.112e-14  6.110e-14  5.243e-15  1.311e-15
  cstot    8.029e-14  8.408e-15  3.363e-14  7.363e-14  1.301e-14  3.253e-15
  cbtot    4.118e-14  7.331e-15  2.692e-14  3.051e-14  1.747e-14  4.368e-15
  cgs      5.595e-14  4.120e-15  1.648e-14  5.238e-14  2.591e-15  6.478e-16
  cgd      1.046e-15  2.837e-16  1.135e-15  7.365e-16  7.686e-16  1.922e-16



 subckt   xib        xop1       xop1       xop1       xop1       xop1      
 element  2:mn       3:mc1      3:mc2      3:mc3      3:m1       3:m2      
 model    0:nch.3    0:pch.4    0:nch.3    0:nch.2    0:nch.1    0:nch.1   
 region       Cutoff   Saturati     Cutoff     Cutoff     Cutoff     Cutoff
  id       2.102e-06 -4.690e-08  4.685e-08  4.687e-08  2.300e-08  2.360e-08
  ibs     -2.116e-14  1.027e-20 -3.673e-14 -8.753e-20 -7.055e-15 -7.055e-15
  ibd     -2.116e-14  1.159e-16 -1.402e-11 -3.438e-15 -5.208e-12 -2.500e-12
  vgs        0.4841    -0.9328     0.3405     0.3539     0.3761     0.3776 
  vds        0.4826    -0.9328     2.0133     0.3539     2.2407     2.0904 
  vbs       -0.2102     0.        -0.3539     0.        -0.3167    -0.3167 
  vth        0.5276    -0.8888     0.5520     0.4524     0.5333     0.5335 
  vdsat    5.254e-02   -0.1105   4.389e-02  4.559e-02  4.454e-02  4.459e-02
  vod     -4.347e-02 -4.398e-02   -0.2116  -9.855e-02   -0.1572    -0.1559 
  beta     6.655e-03  1.106e-05  1.061e-02  4.027e-04  5.292e-04  5.292e-04
  gam eff    0.5248     0.3553     0.5203     0.4612     0.4538     0.4538 
  gm       5.140e-05  6.367e-07  1.348e-06  1.160e-06  5.960e-07  6.102e-07
  gds      6.580e-07  1.788e-09  1.476e-08  6.853e-09  2.222e-09  2.007e-09
  gmb      1.324e-05  1.478e-07  3.400e-07  3.449e-07  1.575e-07  1.612e-07
  cdtot    1.779e-14  1.987e-15  2.598e-14  2.816e-15  5.058e-15  5.102e-15
  cgtot    1.330e-14  1.361e-14  2.216e-14  3.216e-15  1.184e-14  1.184e-14
  cstot    1.935e-14  1.332e-14  3.178e-14  3.054e-15  6.309e-15  6.309e-15
  cbtot    3.789e-14  1.086e-14  5.929e-14  7.377e-15  1.902e-14  1.906e-14
  cgs      3.138e-15  8.667e-15  5.155e-15  4.270e-16  1.046e-15  1.046e-15
  cgd      3.138e-15  1.922e-16  5.155e-15  4.270e-16  1.046e-15  1.046e-15



 subckt   xop1       xop1       xop1       xop1       xop1       xop1      
 element  3:m3       3:m4       3:mb       3:mr1      3:mcr1     3:mcr4    
 model    0:pch.2    0:pch.2    0:nch.2    0:pch.4    0:pch.2    0:pch.5   
 region       Cutoff     Cutoff     Cutoff     Cutoff     Cutoff     Cutoff
  id      -2.301e-08 -2.361e-08  4.661e-08  4.667e-18 -3.205e-08 -4.674e-08
  ibs      4.791e-21  4.914e-21 -8.704e-20    0.       6.673e-21  1.024e-20
  ibd      2.059e-16  2.060e-16 -3.438e-15 -8.660e-26  1.585e-12  2.318e-16
  vgs       -0.7425    -0.7425     0.3539    -0.8281    -0.7425    -0.7917 
  vds       -0.7425    -0.8929     0.3167   1.919e-11   -2.9505    -0.7917 
  vbs        0.         0.         0.         0.         0.         0.     
  vth       -0.8669    -0.8659     0.4525    -0.8907    -0.8522    -0.8784 
  vdsat   -5.542e-02 -5.555e-02  4.558e-02 -6.654e-02 -5.747e-02 -6.185e-02
  vod        0.1243     0.1233  -9.863e-02  6.264e-02    0.1097   8.675e-02
  beta     1.033e-04  1.033e-04  4.027e-04  1.114e-05  1.037e-04  9.555e-05
  gam eff    0.3948     0.3948     0.4612     0.3553     0.3948     0.3889 
  gm       4.554e-07  4.664e-07  1.154e-06  5.878e-17  6.208e-07  8.552e-07
  gds      3.967e-09  3.921e-09  7.073e-09  2.431e-07  4.489e-09  6.851e-09
  gmb      1.037e-07  1.062e-07  3.431e-07  1.460e-17  1.413e-07  1.939e-07
  cdtot    3.456e-15  3.328e-15  2.836e-15  2.677e-15  2.396e-15  4.112e-15
  cgtot    2.778e-15  2.778e-15  3.216e-15  6.709e-15  2.778e-15  3.210e-15
  cstot    4.448e-15  4.448e-15  3.054e-15  2.677e-15  4.448e-15  5.353e-15
  cbtot    9.181e-15  9.054e-15  7.397e-15  1.129e-14  8.122e-15  1.114e-14
  cgs      3.751e-16  3.751e-16  4.270e-16  1.922e-16  3.751e-16  3.843e-16
  cgd      3.751e-16  3.751e-16  4.270e-16  1.922e-16  3.751e-16  3.843e-16



 subckt   xop1       xop1       xop1      
 element  3:mcr5     3:mcr2     3:mcr3    
 model    0:pch.2    0:nch.6    0:nch.6   
 region       Cutoff     Cutoff     Cutoff
  id      -4.674e-08  3.206e-08  4.674e-08
  ibs      9.731e-21 -7.269e-20 -1.060e-19
  ibd      2.059e-16 -2.233e-15 -2.015e-12
  vgs       -0.7790     0.3495     0.3495 
  vds       -0.7790     0.3495     1.7294 
  vbs        0.         0.         0.     
  vth       -0.8666     0.4539     0.4474 
  vdsat   -6.140e-02  4.473e-02  4.521e-02
  vod      8.768e-02   -0.1044  -9.785e-02
  beta     1.032e-04  3.748e-04  3.749e-04
  gam eff    0.3948     0.4931     0.4931 
  gm       8.801e-07  8.197e-07  1.177e-06
  gds      7.689e-09  1.015e-08  1.183e-08
  gmb      1.998e-07  2.367e-07  3.381e-07
  cdtot    3.423e-15  1.668e-15  1.430e-15
  cgtot    2.751e-15  1.107e-15  1.107e-15
  cstot    4.448e-15  1.803e-15  1.803e-15
  cbtot    9.122e-15  3.695e-15  3.458e-15
  cgs      3.751e-16  2.207e-16  2.207e-16
  cgd      3.751e-16  2.207e-16  2.207e-16






 **** the results of the sqrt of integral (I**2 / freq)
      using more points from fstart to fstop 
      results in more accurate total noise values.

 **** total output noise current   =  4.626e-06       amps
 **** total equivalent input noise =  3.239e-03      

          ***** job concluded
  *** initial damped pseudo transient completed. ***
  *** final try started ***
1****** HSPICE -- B-2008.09-SP1 32-BIT (Nov 24 2008) linux ******               
 ******  
 ***current mirror

  ******  ac analysis tnom=  25.000 temp=  25.000 *****
 ***** operating point status is all       simulation time is     0.     

   *** parameter rr               =    1.000E+06 ***

    node    =voltage      node    =voltage      node    =voltage

 +0:cn      =   0.6943  0:cp      =   2.2940  0:mpx     =   2.5349 
 +0:mpy     =   0.6941  0:opb1    =   0.6943  0:vdd     =   3.3000 
 +0:vdt     =   2.0000  0:vgt     =   1.5000  0:vop     =   2.5349 
 +0:vss     =   0.      0:vst     =   0.9928  2:io      =   0.6943 
 +2:rx      =   0.2729  3:1       =   2.5569  3:b       =   0.3174 
 +3:cn2     =   0.3539  3:cp2     =   2.3672  3:cr1     =   0.3499 
 +3:cr2     =   2.5205  3:rb      =   1.7283  3:xx      =   2.5569 


 maximum nodal capacitance=   2.708E-13         on node     0:vss             

    nodal  capacitance table 

    node    =    cap      node    =    cap      node    =    cap

 +0:cn      = 1.074e-13 0:cp      = 2.900e-14 0:mpx     = 4.766e-15
 +0:mpy     = 6.563e-14 0:opb1    = 1.330e-14 0:vdd     = 1.891e-13
 +0:vdt     = 5.702e-15 0:vgt     = 7.187e-14 0:vop     = 2.385e-13
 +0:vss     = 2.708e-13 0:vst     = 1.215e-13 2:io      = 1.503e-15
 +2:rx      = 1.909e-14 3:1       = 3.081e-14 3:b       = 1.545e-14
 +3:cn2     = 4.103e-14 3:cp2     = 4.157e-14 3:cr1     = 6.278e-15
 +3:cr2     = 2.266e-14 3:rb      = 1.546e-14 3:xx      = 2.027e-13

 

 ****  voltage sources

 subckt                                                                    
 element  0:vtd      0:vtg      0:vd       0:vs       0:vaci     0:vopx    
  volts      2.0000     1.5000     3.3000     0.         0.         0.     
  current -1.000e-06    0.      -6.112e-06  7.044e-06    0.         0.     
  power    2.000e-06    0.       2.017e-05    0.         0.         0.     

     total voltage source power dissipation=  2.217e-05       watts



 ***** current sources

 subckt                        
 element  0:iin      0:it      
  volts      2.2940     0.9928 
  current  1.000e-06  1.000e-06
  power   -2.294e-06 -9.928e-07


     total current source power dissipation=-3.287e-06       watts

 **** resistors

 subckt   xib       
 element  2:r1      
  r value  1.000e+06
  v drop     0.2729 
  current  2.729e-07
  power    7.448e-08


 **** voltage-controlled voltage sources


 subckt     xib     
 element  2:eio     
  volts      0.6943 
  current  6.822e-08





 **** mosfets


 subckt              xcmb       xcmb       xcmb       xib        xib       
 element  0:mt       1:mc0      1:mc1      1:mc2      2:mp       2:mpb     
 model    0:nch.1    0:pch.2    0:pch.2    0:nch.1    0:pch.6    0:pch.6   
 region     Saturati   Saturati   Saturati   Saturati     Cutoff     Cutoff
  id       1.000e-06 -1.000e-06 -4.598e-06  4.598e-06 -2.729e-07 -6.822e-08
  ibs     -1.600e-18  2.118e-19  9.738e-19 -7.712e-18  5.978e-20  1.494e-20
  ibd     -7.095e-15  1.634e-16  5.561e-11 -5.247e-15  1.081e-11  2.699e-12
  vgs        0.5072    -1.0060    -1.0060     0.6943    -0.7651    -0.7651 
  vds        1.0072    -1.0060    -2.6057     0.6943    -2.6059    -2.6057 
  vbs        0.         0.         0.         0.         0.         0.     
  vth        0.4375    -0.8702    -0.8596     0.4356    -0.8303    -0.8303 
  vdsat      0.1142    -0.1814    -0.1900     0.2567  -6.551e-02 -6.551e-02
  vod      6.972e-02   -0.1358    -0.1464     0.2587   6.517e-02  6.518e-02
  beta     2.039e-04  7.284e-05  2.918e-04  1.383e-04  3.520e-04  8.801e-05
  gam eff    0.4621     0.3947     0.3947     0.4573     0.4029     0.4029 
  gm       1.448e-05  1.047e-05  4.628e-05  3.177e-05  4.881e-06  1.220e-06
  gds      1.956e-08  1.030e-07  3.588e-07  5.536e-08  8.248e-08  2.062e-08
  gmb      4.344e-06  2.277e-06  1.005e-05  9.283e-06  1.072e-06  2.680e-07
  cdtot    5.702e-15  2.598e-15  7.994e-15  4.298e-15  6.010e-15  1.503e-15
  cgtot    7.187e-14  5.280e-15  2.112e-14  6.110e-14  3.813e-15  9.532e-16
  cstot    8.029e-14  8.408e-15  3.363e-14  7.363e-14  1.071e-14  2.677e-15
  cbtot    4.118e-14  7.331e-15  2.692e-14  3.051e-14  1.746e-14  4.364e-15
  cgs      5.595e-14  4.120e-15  1.648e-14  5.238e-14  7.686e-16  1.922e-16
  cgd      1.046e-15  2.837e-16  1.135e-15  7.365e-16  7.686e-16  1.922e-16



 subckt   xib        xop1       xop1       xop1       xop1       xop1      
 element  2:mn       3:mc1      3:mc2      3:mc3      3:m1       3:m2      
 model    0:nch.3    0:pch.4    0:nch.3    0:nch.2    0:nch.1    0:nch.1   
 region       Cutoff   Saturati     Cutoff     Cutoff     Cutoff     Cutoff
  id       2.729e-07 -4.690e-08  4.685e-08  4.687e-08  2.326e-08  2.335e-08
  ibs     -2.116e-14  1.027e-20 -3.673e-14 -8.753e-20 -7.055e-15 -7.055e-15
  ibd     -2.116e-14  1.159e-16 -1.402e-11 -3.438e-15 -5.235e-12 -4.732e-12
  vgs        0.4214    -0.9328     0.3405     0.3539     0.3767     0.3769 
  vds        0.4212    -0.9328     2.0133     0.3539     2.2395     2.2175 
  vbs       -0.2729     0.        -0.3539     0.        -0.3174    -0.3174 
  vth        0.5440    -0.8888     0.5520     0.4524     0.5335     0.5335 
  vdsat    4.510e-02   -0.1105   4.389e-02  4.559e-02  4.456e-02  4.457e-02
  vod       -0.1225  -4.398e-02   -0.2116  -9.855e-02   -0.1568    -0.1566 
  beta     6.649e-03  1.106e-05  1.061e-02  4.027e-04  5.292e-04  5.292e-04
  gam eff    0.5246     0.3553     0.5203     0.4612     0.4538     0.4538 
  gm       7.310e-06  6.367e-07  1.348e-06  1.160e-06  6.022e-07  6.044e-07
  gds      9.617e-08  1.788e-09  1.476e-08  6.853e-09  2.243e-09  2.204e-09
  gmb      1.879e-06  1.478e-07  3.400e-07  3.449e-07  1.591e-07  1.596e-07
  cdtot    1.779e-14  1.987e-15  2.598e-14  2.816e-15  5.059e-15  5.065e-15
  cgtot    1.330e-14  1.361e-14  2.216e-14  3.216e-15  1.184e-14  1.184e-14
  cstot    1.909e-14  1.332e-14  3.178e-14  3.054e-15  6.308e-15  6.308e-15
  cbtot    3.763e-14  1.086e-14  5.929e-14  7.377e-15  1.902e-14  1.903e-14
  cgs      3.138e-15  8.667e-15  5.155e-15  4.270e-16  1.046e-15  1.046e-15
  cgd      3.138e-15  1.922e-16  5.155e-15  4.270e-16  1.046e-15  1.046e-15



 subckt   xop1       xop1       xop1       xop1       xop1       xop1      
 element  3:m3       3:m4       3:mb       3:mr1      3:mcr1     3:mcr4    
 model    0:pch.2    0:pch.2    0:nch.2    0:pch.4    0:pch.2    0:pch.5   
 region       Cutoff     Cutoff     Cutoff     Cutoff     Cutoff     Cutoff
  id      -2.327e-08 -2.336e-08  4.661e-08 -4.925e-18 -3.240e-08 -4.722e-08
  ibs      4.844e-21  4.862e-21 -8.705e-20    0.       6.745e-21  1.034e-20
  ibd      2.059e-16  2.059e-16 -3.438e-15  9.079e-26  1.600e-12  2.318e-16
  vgs       -0.7431    -0.7431     0.3539    -0.8286    -0.7431    -0.7922 
  vds       -0.7431    -0.7651     0.3174  -2.012e-11   -2.9501    -0.7922 
  vbs        0.         0.         0.         0.         0.         0.     
  vth       -0.8669    -0.8667     0.4525    -0.8907    -0.8522    -0.8784 
  vdsat   -5.549e-02 -5.551e-02  4.558e-02 -6.668e-02 -5.755e-02 -6.197e-02
  vod        0.1238     0.1236  -9.863e-02  6.211e-02    0.1091   8.620e-02
  beta     1.033e-04  1.033e-04  4.027e-04  1.114e-05  1.037e-04  9.555e-05
  gam eff    0.3948     0.3948     0.4612     0.3553     0.3948     0.3889 
  gm       4.601e-07  4.617e-07  1.154e-06  6.195e-17  6.270e-07  8.633e-07
  gds      4.008e-09  3.999e-09  7.068e-09  2.448e-07  4.534e-09  6.917e-09
  gmb      1.048e-07  1.052e-07  3.431e-07  1.539e-17  1.427e-07  1.957e-07
  cdtot    3.455e-15  3.436e-15  2.835e-15  2.677e-15  2.396e-15  4.112e-15
  cgtot    2.777e-15  2.777e-15  3.216e-15  6.708e-15  2.777e-15  3.209e-15
  cstot    4.448e-15  4.448e-15  3.054e-15  2.677e-15  4.448e-15  5.353e-15
  cbtot    9.180e-15  9.161e-15  7.396e-15  1.129e-14  8.121e-15  1.114e-14
  cgs      3.751e-16  3.751e-16  4.270e-16  1.922e-16  3.751e-16  3.843e-16
  cgd      3.751e-16  3.751e-16  4.270e-16  1.922e-16  3.751e-16  3.843e-16



 subckt   xop1       xop1       xop1      
 element  3:mcr5     3:mcr2     3:mcr3    
 model    0:pch.2    0:nch.6    0:nch.6   
 region       Cutoff     Cutoff     Cutoff
  id      -4.722e-08  3.240e-08  4.721e-08
  ibs      9.830e-21 -7.347e-20 -1.071e-19
  ibd      2.059e-16 -2.233e-15 -2.017e-12
  vgs       -0.7795     0.3499     0.3499 
  vds       -0.7795     0.3499     1.7283 
  vbs        0.         0.         0.     
  vth       -0.8666     0.4539     0.4474 
  vdsat   -6.151e-02  4.476e-02  4.524e-02
  vod      8.714e-02   -0.1040  -9.744e-02
  beta     1.032e-04  3.748e-04  3.749e-04
  gam eff    0.3948     0.4931     0.4931 
  gm       8.885e-07  8.281e-07  1.188e-06
  gds      7.762e-09  1.025e-08  1.194e-08
  gmb      2.017e-07  2.391e-07  3.413e-07
  cdtot    3.423e-15  1.668e-15  1.430e-15
  cgtot    2.751e-15  1.107e-15  1.107e-15
  cstot    4.448e-15  1.803e-15  1.803e-15
  cbtot    9.121e-15  3.695e-15  3.458e-15
  cgs      3.751e-16  2.207e-16  2.207e-16
  cgd      3.751e-16  2.207e-16  2.207e-16






 **** the results of the sqrt of integral (I**2 / freq)
      using more points from fstart to fstop 
      results in more accurate total noise values.

 **** total output noise current   =  4.620e-06       amps
 **** total equivalent input noise =  1.985e-03      
 

          ***** job concluded
1****** HSPICE -- B-2008.09-SP1 32-BIT (Nov 24 2008) linux ******               
 ******  
 ***current mirror

  ******  job statistics summary tnom=  25.000 temp=  25.000 *****

  ******  HSPICE Threads Information  ******
  Command Line Threads Count:                      0
  Available CPU Count:                             8
  Actual Model Evaluation(Load) Threads Count:     1
  Actual Solver Threads Count:                     1


  ******  Circuit Statistics  ******
  # nodes       =      66  # elements   =      35
  # resistors   =       1  # capacitors =       2  # inductors   =       0
  # mutual_inds =       0  # vccs       =       0  # vcvs        =       1
  # cccs        =       0  # ccvs       =       0  # volt_srcs   =       8
  # curr_srcs   =       2  # diodes     =       0  # bjts        =       0
  # jfets       =       0  # mosfets    =      21  # U elements  =       0
  # T elements  =       0  # W elements =       0  # B elements  =       0
  # S elements  =       0  # P elements =       0  # va device   =       0


  ******  Runtime Statistics (seconds)  ******

  analysis           time    # points   tot. iter  conv.iter
  op point           0.07           1         619
  dc sweep           0.13         401         868
  ac analysis        1.99       48004       48004
  readin             0.01
  errchk             0.01
  setup              0.00
  output             0.00


           total memory used         1114  kbytes
           total cpu time            2.19 seconds
           total elapsed time        2.54 seconds
           job started at     18:16:26 04/12/2016
           job ended   at     18:16:29 04/12/2016


1****** HSPICE -- B-2008.09-SP1 32-BIT (Nov 24 2008) linux ******               
 ******  
 

  ******    alter processing listing tnom=  25.000 temp=  25.000 *****
 .del lib 'test.l' closed
 .lib 'test.l' iboptest

     .op
     xop vdd vss vinp vinn vop cn cp opnw2
     .param diff = 0
     vinp vinp cn dc = 'diff' ac = 1
     vinn vinn cn dc = 0
     .dc vinp -0.1 0.1 0.0001
     .probe dc par'1/lx8(xop.mr1)'
     .ac dec 1000 1 10g sweep vinp -0.01 0.01 0.002
     *.noise v(vop2) vinp
 .endl

 .alter
 $ alter processing continues $


 **warning**  the accurate option increases  the cpu time but the results
                are more accurate.
 ***accurate option sets default value of the options: 
 lvltim= 4         dvdt= 3       relvar= 200.00m absvar= 200.00m
     ft= 200.00m relmos=  10.00m
 (used for FFT control ) fft_accurate= 1
1****** HSPICE -- B-2008.09-SP1 32-BIT (Nov 24 2008) linux ******               
 ******  
 ***current mirror

  ******  circuit name directory
 circuit number to circuit name directory
   number circuitname                     definition         multiplier
        0 main circuit
        1 xcmb.                           cmb_bete5          1.00 
        2 xop.                            opnw2              1.00 
 
      
  Opening plot unit= 15
 file=ImirrorBias.pa2                                                          

  *** initial damped pseudo transient completed. ***
  *** final try started ***
1****** HSPICE -- B-2008.09-SP1 32-BIT (Nov 24 2008) linux ******               
 ******  
 ***current mirror

  ******  operating point information tnom=  25.000 temp=  25.000 *****
 ***** operating point status is all       simulation time is     0.     
    node    =voltage      node    =voltage      node    =voltage

 +0:cn      =   0.6943  0:cp      =   2.2940  0:vdd     =   3.3000 
 +0:vdt     =   2.0000  0:vgt     =   1.5000  0:vinn    =   0.6943 
 +0:vinp    =   0.6943  0:vop     =   2.5568  0:vss     =   0.     
 +0:vst     =   0.9928  2:1       =   2.5568  2:b       =   0.3175 
 +2:cn2     =   0.3539  2:cp2     =   2.3672  2:cr1     =   0.3500 
 +2:cr2     =   2.5204  2:rb      =   1.7281  2:xx      =   2.5568 


 maximum nodal capacitance=   2.385E-13         on node     0:vop             

    nodal  capacitance table 

    node    =    cap      node    =    cap      node    =    cap

 +0:cn      = 9.555e-14 0:cp      = 2.900e-14 0:vdd     = 1.539e-13
 +0:vdt     = 5.702e-15 0:vgt     = 7.187e-14 0:vinn    = 1.184e-14
 +0:vinp    = 4.184e-14 0:vop     = 2.385e-13 0:vss     = 2.331e-13
 +0:vst     = 1.215e-13 2:1       = 3.081e-14 2:b       = 1.545e-14
 +2:cn2     = 4.103e-14 2:cp2     = 4.157e-14 2:cr1     = 6.278e-15
 +2:cr2     = 2.266e-14 2:rb      = 1.546e-14 2:xx      = 2.027e-13

 

 ****  voltage sources

 subckt                                                                    
 element  0:vtd      0:vtg      0:vd       0:vs       0:vinp     0:vinn    
  volts      2.0000     1.5000     3.3000     0.         0.         0.     
  current -1.000e-06    0.      -5.771e-06  6.771e-06    0.         0.     
  power    2.000e-06    0.       1.904e-05    0.         0.         0.     

     total voltage source power dissipation=  2.104e-05       watts



 ***** current sources

 subckt                        
 element  0:iin      0:it      
  volts      2.2940     0.9928 
  current  1.000e-06  1.000e-06
  power   -2.294e-06 -9.928e-07


     total current source power dissipation=-3.287e-06       watts


 **** mosfets


 subckt              xcmb       xcmb       xcmb       xop        xop       
 element  0:mt       1:mc0      1:mc1      1:mc2      2:mc1      2:mc2     
 model    0:nch.1    0:pch.2    0:pch.2    0:nch.1    0:pch.4    0:nch.3   
 region     Saturati   Saturati   Saturati   Saturati   Saturati     Cutoff
  id       1.000e-06 -1.000e-06 -4.598e-06  4.598e-06 -4.690e-08  4.685e-08
  ibs     -1.600e-18  2.118e-19  9.738e-19 -7.712e-18  1.027e-20 -3.673e-14
  ibd     -7.095e-15  1.634e-16  5.561e-11 -5.247e-15  1.159e-16 -1.402e-11
  vgs        0.5072    -1.0060    -1.0060     0.6943    -0.9328     0.3405 
  vds        1.0072    -1.0060    -2.6057     0.6943    -0.9328     2.0133 
  vbs        0.         0.         0.         0.         0.        -0.3539 
  vth        0.4375    -0.8702    -0.8596     0.4356    -0.8888     0.5520 
  vdsat      0.1142    -0.1814    -0.1900     0.2567    -0.1105   4.389e-02
  vod      6.972e-02   -0.1358    -0.1464     0.2587  -4.398e-02   -0.2116 
  beta     2.039e-04  7.284e-05  2.918e-04  1.383e-04  1.106e-05  1.061e-02
  gam eff    0.4621     0.3947     0.3947     0.4573     0.3553     0.5203 
  gm       1.448e-05  1.047e-05  4.628e-05  3.177e-05  6.367e-07  1.348e-06
  gds      1.956e-08  1.030e-07  3.588e-07  5.536e-08  1.788e-09  1.476e-08
  gmb      4.344e-06  2.277e-06  1.005e-05  9.283e-06  1.478e-07  3.400e-07
  cdtot    5.702e-15  2.598e-15  7.994e-15  4.298e-15  1.987e-15  2.598e-14
  cgtot    7.187e-14  5.280e-15  2.112e-14  6.110e-14  1.361e-14  2.216e-14
  cstot    8.029e-14  8.408e-15  3.363e-14  7.363e-14  1.332e-14  3.178e-14
  cbtot    4.118e-14  7.331e-15  2.692e-14  3.051e-14  1.086e-14  5.929e-14
  cgs      5.595e-14  4.120e-15  1.648e-14  5.238e-14  8.667e-15  5.155e-15
  cgd      1.046e-15  2.837e-16  1.135e-15  7.365e-16  1.922e-16  5.155e-15



 subckt   xop        xop        xop        xop        xop        xop       
 element  2:mc3      2:m1       2:m2       2:m3       2:m4       2:mb      
 model    0:nch.2    0:nch.1    0:nch.1    0:pch.2    0:pch.2    0:nch.2   
 region       Cutoff     Cutoff     Cutoff     Cutoff     Cutoff     Cutoff
  id       4.687e-08  2.330e-08  2.330e-08 -2.331e-08 -2.331e-08  4.661e-08
  ibs     -8.753e-20 -7.055e-15 -7.055e-15  4.853e-21  4.853e-21 -8.705e-20
  ibd     -3.438e-15 -5.239e-12 -5.239e-12  2.059e-16  2.059e-16 -3.438e-15
  vgs        0.3539     0.3768     0.3768    -0.7432    -0.7432     0.3539 
  vds        0.3539     2.2393     2.2393    -0.7432    -0.7432     0.3175 
  vbs        0.        -0.3175    -0.3175     0.         0.         0.     
  vth        0.4524     0.5335     0.5335    -0.8669    -0.8669     0.4525 
  vdsat    4.559e-02  4.456e-02  4.456e-02 -5.550e-02 -5.550e-02  4.558e-02
  vod     -9.855e-02   -0.1567    -0.1567     0.1237     0.1237  -9.863e-02
  beta     4.027e-04  5.292e-04  5.292e-04  1.033e-04  1.033e-04  4.027e-04
  gam eff    0.4612     0.4538     0.4538     0.3948     0.3948     0.4612 
  gm       1.160e-06  6.033e-07  6.033e-07  4.609e-07  4.609e-07  1.154e-06
  gds      6.853e-09  2.247e-09  2.247e-09  4.015e-09  4.015e-09  7.067e-09
  gmb      3.449e-07  1.594e-07  1.594e-07  1.050e-07  1.050e-07  3.431e-07
  cdtot    2.816e-15  5.059e-15  5.059e-15  3.455e-15  3.455e-15  2.835e-15
  cgtot    3.216e-15  1.184e-14  1.184e-14  2.777e-15  2.777e-15  3.216e-15
  cstot    3.054e-15  6.308e-15  6.308e-15  4.448e-15  4.448e-15  3.054e-15
  cbtot    7.377e-15  1.902e-14  1.902e-14  9.180e-15  9.180e-15  7.396e-15
  cgs      4.270e-16  1.046e-15  1.046e-15  3.751e-16  3.751e-16  4.270e-16
  cgd      4.270e-16  1.046e-15  1.046e-15  3.751e-16  3.751e-16  4.270e-16



 subckt   xop        xop        xop        xop        xop        xop       
 element  2:mr1      2:mcr1     2:mcr4     2:mcr5     2:mcr2     2:mcr3    
 model    0:pch.4    0:pch.2    0:pch.5    0:pch.2    0:nch.6    0:nch.6   
 region       Cutoff     Cutoff     Cutoff     Cutoff     Cutoff     Cutoff
  id      -2.732e-19 -3.246e-08 -4.730e-08 -4.730e-08  3.246e-08  4.730e-08
  ibs        0.       6.757e-21  1.036e-20  9.847e-21 -7.361e-20 -1.072e-19
  ibd      5.031e-27  1.602e-12  2.318e-16  2.059e-16 -2.233e-15 -2.018e-12
  vgs       -0.8287    -0.7432    -0.7923    -0.7796     0.3500     0.3500 
  vds     -1.115e-12   -2.9500    -0.7923    -0.7796     0.3500     1.7281 
  vbs        0.         0.         0.         0.         0.         0.     
  vth       -0.8907    -0.8522    -0.8784    -0.8666     0.4539     0.4474 
  vdsat   -6.670e-02 -5.757e-02 -6.199e-02 -6.153e-02  4.477e-02  4.525e-02
  vod      6.202e-02    0.1090   8.611e-02  8.705e-02   -0.1039  -9.737e-02
  beta     1.114e-05  1.037e-04  9.555e-05  1.032e-04  3.748e-04  3.749e-04
  gam eff    0.3553     0.3948     0.3889     0.3948     0.4931     0.4931 
  gm       3.436e-18  6.281e-07  8.647e-07  8.899e-07  8.296e-07  1.190e-06
  gds      2.450e-07  4.542e-09  6.928e-09  7.774e-09  1.027e-08  1.196e-08
  gmb      8.534e-19  1.430e-07  1.960e-07  2.021e-07  2.395e-07  3.419e-07
  cdtot    2.677e-15  2.396e-15  4.112e-15  3.423e-15  1.668e-15  1.431e-15
  cgtot    6.707e-15  2.777e-15  3.209e-15  2.751e-15  1.107e-15  1.107e-15
  cstot    2.677e-15  4.448e-15  5.353e-15  4.448e-15  1.803e-15  1.803e-15
  cbtot    1.129e-14  8.121e-15  1.114e-14  9.121e-15  3.695e-15  3.458e-15
  cgs      1.922e-16  3.751e-16  3.843e-16  3.751e-16  2.207e-16  2.207e-16
  cgd      1.922e-16  3.751e-16  3.843e-16  3.751e-16  2.207e-16  2.207e-16



  *** initial damped pseudo transient completed. ***
  *** final try started ***
1****** HSPICE -- B-2008.09-SP1 32-BIT (Nov 24 2008) linux ******               
 ******  
 ***current mirror

  ******  ac analysis tnom=  25.000 temp=  25.000 *****
 ***** operating point status is all       simulation time is     0.     

   *** source        0:vinp             =   -1.000E-02 ***

    node    =voltage      node    =voltage      node    =voltage

 +0:cn      =   0.6943  0:cp      =   2.2940  0:vdd     =   3.3000 
 +0:vdt     =   2.0000  0:vgt     =   1.5000  0:vinn    =   0.6943 
 +0:vinp    =   0.6843  0:vop     =   1.4619  0:vss     =   0.     
 +0:vst     =   0.9928  2:1       =   2.5614  2:b       =   0.3124 
 +2:cn2     =   0.3539  2:cp2     =   2.3672  2:cr1     =   0.3466 
 +2:cr2     =   2.5248  2:rb      =   1.7370  2:xx      =   2.5614 


 maximum nodal capacitance=   2.382E-13         on node     0:vop             

    nodal  capacitance table 

    node    =    cap      node    =    cap      node    =    cap

 +0:cn      = 9.555e-14 0:cp      = 2.900e-14 0:vdd     = 1.532e-13
 +0:vdt     = 5.702e-15 0:vgt     = 7.187e-14 0:vinn    = 1.184e-14
 +0:vinp    = 4.186e-14 0:vop     = 2.382e-13 0:vss     = 2.336e-13
 +0:vst     = 1.215e-13 2:1       = 3.084e-14 2:b       = 1.547e-14
 +2:cn2     = 4.103e-14 2:cp2     = 4.157e-14 2:cr1     = 6.280e-15
 +2:cr2     = 2.268e-14 2:rb      = 1.547e-14 2:xx      = 2.027e-13

 

 ****  voltage sources

 subckt                                                                    
 element  0:vtd      0:vtg      0:vd       0:vs       0:vinp     0:vinn    
  volts      2.0000     1.5000     3.3000     0.      -1.000e-02    0.     
  current -1.000e-06    0.      -5.764e-06  6.764e-06    0.         0.     
  power    2.000e-06    0.       1.902e-05    0.         0.         0.     

     total voltage source power dissipation=  2.102e-05       watts



 ***** current sources

 subckt                        
 element  0:iin      0:it      
  volts      2.2940     0.9928 
  current  1.000e-06  1.000e-06
  power   -2.294e-06 -9.928e-07


     total current source power dissipation=-3.287e-06       watts


 **** mosfets


 subckt              xcmb       xcmb       xcmb       xop        xop       
 element  0:mt       1:mc0      1:mc1      1:mc2      2:mc1      2:mc2     
 model    0:nch.1    0:pch.2    0:pch.2    0:nch.1    0:pch.4    0:nch.3   
 region     Saturati   Saturati   Saturati   Saturati   Saturati     Cutoff
  id       1.000e-06 -1.000e-06 -4.598e-06  4.598e-06 -4.690e-08  4.685e-08
  ibs     -1.600e-18  2.118e-19  9.738e-19 -7.712e-18  1.027e-20 -3.673e-14
  ibd     -7.095e-15  1.634e-16  5.561e-11 -5.247e-15  1.159e-16 -1.402e-11
  vgs        0.5072    -1.0060    -1.0060     0.6943    -0.9328     0.3405 
  vds        1.0072    -1.0060    -2.6057     0.6943    -0.9328     2.0133 
  vbs        0.         0.         0.         0.         0.        -0.3539 
  vth        0.4375    -0.8702    -0.8596     0.4356    -0.8888     0.5520 
  vdsat      0.1142    -0.1814    -0.1900     0.2567    -0.1105   4.389e-02
  vod      6.972e-02   -0.1358    -0.1464     0.2587  -4.398e-02   -0.2116 
  beta     2.039e-04  7.284e-05  2.918e-04  1.383e-04  1.106e-05  1.061e-02
  gam eff    0.4621     0.3947     0.3947     0.4573     0.3553     0.5203 
  gm       1.448e-05  1.047e-05  4.628e-05  3.177e-05  6.367e-07  1.348e-06
  gds      1.956e-08  1.030e-07  3.588e-07  5.536e-08  1.788e-09  1.476e-08
  gmb      4.344e-06  2.277e-06  1.005e-05  9.283e-06  1.478e-07  3.400e-07
  cdtot    5.702e-15  2.598e-15  7.994e-15  4.298e-15  1.987e-15  2.598e-14
  cgtot    7.187e-14  5.280e-15  2.112e-14  6.110e-14  1.361e-14  2.216e-14
  cstot    8.029e-14  8.408e-15  3.363e-14  7.363e-14  1.332e-14  3.178e-14
  cbtot    4.118e-14  7.331e-15  2.692e-14  3.051e-14  1.086e-14  5.929e-14
  cgs      5.595e-14  4.120e-15  1.648e-14  5.238e-14  8.667e-15  5.155e-15
  cgd      1.046e-15  2.837e-16  1.135e-15  7.365e-16  1.922e-16  5.155e-15



 subckt   xop        xop        xop        xop        xop        xop       
 element  2:mc3      2:m1       2:m2       2:m3       2:m4       2:mb      
 model    0:nch.2    0:nch.1    0:nch.1    0:pch.2    0:pch.2    0:nch.2   
 region       Cutoff     Cutoff     Cutoff     Cutoff     Cutoff     Cutoff
  id       4.687e-08  2.127e-08  2.531e-08 -2.128e-08 -2.531e-08  4.658e-08
  ibs     -8.753e-20 -7.055e-15 -7.055e-15  4.429e-21  5.268e-21 -8.699e-20
  ibd     -3.438e-15 -5.007e-12 -7.318e-15  2.059e-16  1.618e-14 -3.438e-15
  vgs        0.3539     0.3719     0.3819    -0.7386    -0.7386     0.3539 
  vds        0.3539     2.2490     1.1494    -0.7386    -1.8381     0.3124 
  vbs        0.        -0.3124    -0.3124     0.         0.         0.     
  vth        0.4524     0.5322     0.5337    -0.8669    -0.8596     0.4525 
  vdsat    4.559e-02  4.442e-02  4.475e-02 -5.494e-02 -5.585e-02  4.558e-02
  vod     -9.855e-02   -0.1603    -0.1518     0.1283     0.1210  -9.864e-02
  beta     4.027e-04  5.293e-04  5.291e-04  1.033e-04  1.035e-04  4.027e-04
  gam eff    0.4612     0.4539     0.4539     0.3948     0.3948     0.4612 
  gm       1.160e-06  5.536e-07  6.504e-07  4.235e-07  4.982e-07  1.153e-06
  gds      6.853e-09  2.077e-09  1.838e-09  3.688e-09  3.755e-09  7.105e-09
  gmb      3.449e-07  1.466e-07  1.719e-07  9.650e-08  1.135e-07  3.429e-07
  cdtot    2.816e-15  5.057e-15  5.453e-15  3.459e-15  2.774e-15  2.838e-15
  cgtot    3.216e-15  1.186e-14  1.184e-14  2.781e-15  2.781e-15  3.216e-15
  cstot    3.054e-15  6.314e-15  6.314e-15  4.448e-15  4.448e-15  3.054e-15
  cbtot    7.377e-15  1.905e-14  1.942e-14  9.188e-15  8.502e-15  7.399e-15
  cgs      4.270e-16  1.046e-15  1.046e-15  3.751e-16  3.751e-16  4.270e-16
  cgd      4.270e-16  1.046e-15  1.046e-15  3.751e-16  3.751e-16  4.270e-16



 subckt   xop        xop        xop        xop        xop        xop       
 element  2:mr1      2:mcr1     2:mcr4     2:mcr5     2:mcr2     2:mcr3    
 model    0:pch.4    0:pch.2    0:pch.5    0:pch.2    0:nch.6    0:nch.6   
 region       Cutoff     Cutoff     Cutoff     Cutoff     Cutoff     Cutoff
  id      -3.473e-18 -2.972e-08 -4.351e-08 -4.351e-08  2.972e-08  4.350e-08
  ibs        0.       6.187e-21  9.532e-21  9.057e-21 -6.740e-20 -9.865e-20
  ibd      6.756e-26  1.482e-12  2.318e-16  2.059e-16 -2.233e-15 -1.995e-12
  vgs       -0.8244    -0.7386    -0.7878    -0.7752     0.3466     0.3466 
  vds     -1.498e-11   -2.9534    -0.7878    -0.7752     0.3466     1.7370 
  vbs        0.         0.         0.         0.         0.         0.     
  vth       -0.8907    -0.8522    -0.8784    -0.8667     0.4539     0.4473 
  vdsat   -6.557e-02 -5.688e-02 -6.105e-02 -6.064e-02  4.454e-02  4.499e-02
  vod      6.636e-02    0.1136   9.066e-02  9.147e-02   -0.1073    -0.1007 
  beta     1.114e-05  1.037e-04  9.556e-05  1.032e-04  3.748e-04  3.749e-04
  gam eff    0.3553     0.3948     0.3889     0.3948     0.4931     0.4931 
  gm       4.416e-17  5.787e-07  7.996e-07  8.232e-07  7.625e-07  1.100e-06
  gds      2.319e-07  4.183e-09  6.405e-09  7.189e-09  9.450e-09  1.104e-08
  gmb      1.098e-17  1.318e-07  1.814e-07  1.870e-07  2.203e-07  3.161e-07
  cdtot    2.677e-15  2.395e-15  4.117e-15  3.427e-15  1.669e-15  1.430e-15
  cgtot    6.715e-15  2.781e-15  3.212e-15  2.754e-15  1.108e-15  1.108e-15
  cstot    2.677e-15  4.448e-15  5.353e-15  4.448e-15  1.803e-15  1.803e-15
  cbtot    1.130e-14  8.124e-15  1.115e-14  9.128e-15  3.697e-15  3.457e-15
  cgs      1.922e-16  3.751e-16  3.843e-16  3.751e-16  2.207e-16  2.207e-16
  cgd      1.922e-16  3.751e-16  3.843e-16  3.751e-16  2.207e-16  2.207e-16




          ***** job concluded
  *** initial damped pseudo transient completed. ***
  *** final try started ***
1****** HSPICE -- B-2008.09-SP1 32-BIT (Nov 24 2008) linux ******               
 ******  
 ***current mirror

  ******  ac analysis tnom=  25.000 temp=  25.000 *****
 ***** operating point status is all       simulation time is     0.     

   *** source        0:vinp             =   -8.000E-03 ***

    node    =voltage      node    =voltage      node    =voltage

 +0:cn      =   0.6943  0:cp      =   2.2940  0:vdd     =   3.3000 
 +0:vdt     =   2.0000  0:vgt     =   1.5000  0:vinn    =   0.6943 
 +0:vinp    =   0.6863  0:vop     =   1.6921  0:vss     =   0.     
 +0:vst     =   0.9928  2:1       =   2.5604  2:b       =   0.3134 
 +2:cn2     =   0.3539  2:cp2     =   2.3672  2:cr1     =   0.3473 
 +2:cr2     =   2.5239  2:rb      =   1.7352  2:xx      =   2.5604 


 maximum nodal capacitance=   2.382E-13         on node     0:vop             

    nodal  capacitance table 

    node    =    cap      node    =    cap      node    =    cap

 +0:cn      = 9.555e-14 0:cp      = 2.900e-14 0:vdd     = 1.533e-13
 +0:vdt     = 5.702e-15 0:vgt     = 7.187e-14 0:vinn    = 1.184e-14
 +0:vinp    = 4.186e-14 0:vop     = 2.382e-13 0:vss     = 2.334e-13
 +0:vst     = 1.215e-13 2:1       = 3.083e-14 2:b       = 1.546e-14
 +2:cn2     = 4.103e-14 2:cp2     = 4.157e-14 2:cr1     = 6.280e-15
 +2:cr2     = 2.268e-14 2:rb      = 1.547e-14 2:xx      = 2.027e-13

 

 ****  voltage sources

 subckt                                                                    
 element  0:vtd      0:vtg      0:vd       0:vs       0:vinp     0:vinn    
  volts      2.0000     1.5000     3.3000     0.      -8.000e-03    0.     
  current -1.000e-06    0.      -5.766e-06  6.766e-06    0.         0.     
  power    2.000e-06    0.       1.903e-05    0.         0.         0.     

     total voltage source power dissipation=  2.103e-05       watts



 ***** current sources

 subckt                        
 element  0:iin      0:it      
  volts      2.2940     0.9928 
  current  1.000e-06  1.000e-06
  power   -2.294e-06 -9.928e-07


     total current source power dissipation=-3.287e-06       watts


 **** mosfets


 subckt              xcmb       xcmb       xcmb       xop        xop       
 element  0:mt       1:mc0      1:mc1      1:mc2      2:mc1      2:mc2     
 model    0:nch.1    0:pch.2    0:pch.2    0:nch.1    0:pch.4    0:nch.3   
 region     Saturati   Saturati   Saturati   Saturati   Saturati     Cutoff
  id       1.000e-06 -1.000e-06 -4.598e-06  4.598e-06 -4.690e-08  4.685e-08
  ibs     -1.600e-18  2.118e-19  9.738e-19 -7.712e-18  1.027e-20 -3.673e-14
  ibd     -7.095e-15  1.634e-16  5.561e-11 -5.247e-15  1.159e-16 -1.402e-11
  vgs        0.5072    -1.0060    -1.0060     0.6943    -0.9328     0.3405 
  vds        1.0072    -1.0060    -2.6057     0.6943    -0.9328     2.0133 
  vbs        0.         0.         0.         0.         0.        -0.3539 
  vth        0.4375    -0.8702    -0.8596     0.4356    -0.8888     0.5520 
  vdsat      0.1142    -0.1814    -0.1900     0.2567    -0.1105   4.389e-02
  vod      6.972e-02   -0.1358    -0.1464     0.2587  -4.398e-02   -0.2116 
  beta     2.039e-04  7.284e-05  2.918e-04  1.383e-04  1.106e-05  1.061e-02
  gam eff    0.4621     0.3947     0.3947     0.4573     0.3553     0.5203 
  gm       1.448e-05  1.047e-05  4.628e-05  3.177e-05  6.367e-07  1.348e-06
  gds      1.956e-08  1.030e-07  3.588e-07  5.536e-08  1.788e-09  1.476e-08
[...]
  vds        0.3539     2.2299     2.8850    -0.7471  -9.201e-02    0.3230 
  vbs        0.        -0.3230    -0.3230     0.         0.         0.     
  vth        0.4524     0.5350     0.5341    -0.8669    -0.8712     0.4525 
  vdsat    4.559e-02  4.470e-02  4.437e-02 -5.602e-02 -5.546e-02  4.558e-02
  vod     -9.855e-02   -0.1536    -0.1627     0.1197     0.1241  -9.862e-02
  beta     4.027e-04  5.291e-04  5.292e-04  1.033e-04  1.032e-04  4.027e-04
  gam eff    0.4612     0.4537     0.4537     0.3948     0.3948     0.4612 
  gm       1.160e-06  6.495e-07  5.603e-07  4.956e-07  4.229e-07  1.155e-06
  gds      6.853e-09  2.401e-09  4.903e-09  4.319e-09  2.601e-08  7.029e-09
  gmb      3.449e-07  1.711e-07  1.479e-07  1.129e-07  9.633e-08  3.434e-07
  cdtot    2.816e-15  5.060e-15  4.897e-15  3.452e-15  4.274e-15  2.832e-15
  cgtot    3.216e-15  1.181e-14  1.184e-14  2.774e-15  2.774e-15  3.216e-15
  cstot    3.054e-15  6.301e-15  6.301e-15  4.448e-15  4.448e-15  3.054e-15
  cbtot    7.377e-15  1.899e-14  1.885e-14  9.173e-15  9.996e-15  7.393e-15
  cgs      4.270e-16  1.046e-15  1.046e-15  3.751e-16  3.751e-16  4.270e-16
  cgd      4.270e-16  1.046e-15  1.046e-15  3.751e-16  3.751e-16  4.270e-16



 subckt   xop        xop        xop        xop        xop        xop       
 element  2:mr1      2:mcr1     2:mcr4     2:mcr5     2:mcr2     2:mcr3    
 model    0:pch.4    0:pch.2    0:pch.5    0:pch.2    0:nch.6    0:nch.6   
 region       Cutoff     Cutoff     Cutoff     Cutoff     Cutoff     Cutoff
  id      -2.415e-18 -3.501e-08 -5.082e-08 -5.082e-08  3.502e-08  5.081e-08
  ibs        0.       7.289e-21  1.113e-20  1.058e-20 -7.940e-20 -1.152e-19
  ibd      4.243e-26  1.713e-12  2.318e-16  2.059e-16 -2.233e-15 -2.036e-12
  vgs       -0.8324    -0.7471    -0.7962    -0.7834     0.3530     0.3530 
  vds     -9.404e-12   -2.9470    -0.7962    -0.7834     0.3530     1.7204 
  vbs        0.         0.         0.         0.         0.         0.     
  vth       -0.8907    -0.8523    -0.8784    -0.8666     0.4539     0.4474 
  vdsat   -6.771e-02 -5.819e-02 -6.283e-02 -6.233e-02  4.498e-02  4.549e-02
  vod      5.827e-02    0.1051   8.218e-02  8.323e-02   -0.1010  -9.447e-02
  beta     1.113e-05  1.037e-04  9.554e-05  1.032e-04  3.748e-04  3.749e-04
  gam eff    0.3553     0.3948     0.3889     0.3948     0.4931     0.4931 
  gm       3.008e-17  6.739e-07  9.248e-07  9.515e-07  8.919e-07  1.274e-06
  gds      2.568e-07  4.875e-09  7.412e-09  8.315e-09  1.103e-08  1.282e-08
  gmb      7.462e-18  1.533e-07  2.096e-07  2.160e-07  2.572e-07  3.656e-07
  cdtot    2.677e-15  2.397e-15  4.108e-15  3.420e-15  1.667e-15  1.431e-15
  cgtot    6.701e-15  2.774e-15  3.206e-15  2.748e-15  1.107e-15  1.107e-15
  cstot    2.677e-15  4.448e-15  5.353e-15  4.448e-15  1.803e-15  1.803e-15
  cbtot    1.129e-14  8.119e-15  1.113e-14  9.115e-15  3.693e-15  3.458e-15
  cgs      1.922e-16  3.751e-16  3.843e-16  3.751e-16  2.207e-16  2.207e-16
  cgd      1.922e-16  3.751e-16  3.843e-16  3.751e-16  2.207e-16  2.207e-16




          ***** job concluded
1****** HSPICE -- B-2008.09-SP1 32-BIT (Nov 24 2008) linux ******               
 ******  
 ***current mirror

  ******  job statistics summary tnom=  25.000 temp=  25.000 *****

  ******  HSPICE Threads Information  ******
  Command Line Threads Count:                      0
  Available CPU Count:                             8
  Actual Model Evaluation(Load) Threads Count:     1
  Actual Solver Threads Count:                     1


  ******  Circuit Statistics  ******
  # nodes       =      55  # elements   =      28
  # resistors   =       0  # capacitors =       2  # inductors   =       0
  # mutual_inds =       0  # vccs       =       0  # vcvs        =       0
  # cccs        =       0  # ccvs       =       0  # volt_srcs   =       6
  # curr_srcs   =       2  # diodes     =       0  # bjts        =       0
  # jfets       =       0  # mosfets    =      18  # U elements  =       0
  # T elements  =       0  # W elements =       0  # B elements  =       0
  # S elements  =       0  # P elements =       0  # va device   =       0


  ******  Runtime Statistics (seconds)  ******

  analysis           time    # points   tot. iter  conv.iter
  op point           0.10           1        1414
  dc sweep           0.23        2001        4077
  ac analysis        1.79      110011      110011
  readin             0.02
  errchk             0.01
  setup              0.00
  output             0.00


           total memory used          967  kbytes
           total cpu time            2.13 seconds
           total elapsed time        2.39 seconds
           job started at     18:16:26 04/12/2016
           job ended   at     18:16:31 04/12/2016


1****** HSPICE -- B-2008.09-SP1 32-BIT (Nov 24 2008) linux ******               
 ******  
 

  ******    alter processing listing tnom=  25.000 temp=  25.000 *****
 .del lib 'test.l' iboptest
 .lib 'test.l' loop

     .op
     .ac dec 1000 1 10g
     xib vdd vss  cn mpx mpy ibias rin = 1x
     xop1 vdd vss mpy cn vop cn cp opnw2
     vopx mpx vss dc = 2.6342  ac = 1     *tt(rin, dc): (1k,  1.4490) (20k, 2.5065)(1x, 2.6516)
     *vopx mpx vss dc =  2.7756 ac = 1     *ff(rin, dc): (1k,  1.6977) (1x, 2.7756)
     *vopx mpx vss dc =  2.5305  ac = 1     *ss(rin, dc): (1k,  1.7878) (1x, 2.5305)
     *vopx mpx vss dc = 2.5522  ac = 1     *fs(rin, dc): (1k,  1.8294) (1x, 2.5525)
     *vopx mpx vss dc = 2.7508  ac = 1     *sf(rin, dc): (1k,  2.0440) (1x, 2.7508)

     .probe ac vp(vop) rdsp=par('1/(lx8(xib.mp) + lx8(xib.mn))') gmp=par('lx7(xib.mp)')
     .pz v(vop) vopx
     .meas ac ph_0db find vp(vop) when v(vop) = 1          * r = ph
     .meas ac ph_start find vp(vop) at = 1    * r = 180 || 0
     .meas ac pm param = 'ph_0db - (ph_start - 180)'      *r = f
 .endl
 .end
 $ end of alter processing $


 **warning**  the accurate option increases  the cpu time but the results
                are more accurate.
 ***accurate option sets default value of the options: 
 lvltim= 4         dvdt= 3       relvar= 200.00m absvar= 200.00m
     ft= 200.00m relmos=  10.00m
 (used for FFT control ) fft_accurate= 1
1****** HSPICE -- B-2008.09-SP1 32-BIT (Nov 24 2008) linux ******               
 ******  
 ***current mirror

  ******  circuit name directory
 circuit number to circuit name directory
   number circuitname                     definition         multiplier
        0 main circuit
        1 xcmb.                           cmb_bete5          1.00 
        2 xib.                            ibias              1.00 
        3 xop1.                           opnw2              1.00 
 
      
  Opening plot unit= 15
 file=ImirrorBias.pa3                                                          

  *** initial damped pseudo transient completed. ***
  *** final try started ***
1****** HSPICE -- B-2008.09-SP1 32-BIT (Nov 24 2008) linux ******               
 ******  
 ***current mirror

  ******  operating point information tnom=  25.000 temp=  25.000 *****
 ***** operating point status is all       simulation time is     0.     
    node    =voltage      node    =voltage      node    =voltage

 +0:cn      =   0.6943  0:cp      =   2.2940  0:mpx     =   2.6342 
 +0:mpy     = 5.109e-02 0:vdd     =   3.3000  0:vdt     =   2.0000 
 +0:vgt     =   1.5000  0:vop     = 7.031e-05 0:vss     =   0.     
 +0:vst     =   0.9928  2:io      =   0.6943  2:rx      = 5.103e-02
 +3:1       =   2.8180  3:b       = 6.969e-05 3:cn2     =   0.3539 
 +3:cp2     =   2.3672  3:cr1     =   0.1336  3:cr2     =   2.7709 
 +3:rb      =   2.2367  3:xx      =   2.8180 


 maximum nodal capacitance=   2.852E-13         on node     0:vss             

    nodal  capacitance table 

    node    =    cap      node    =    cap      node    =    cap

 +0:cn      = 1.808e-13 0:cp      = 2.900e-14 0:mpx     = 4.858e-15
 +0:mpy     = 9.647e-14 0:vdd     = 1.890e-13 0:vdt     = 5.702e-15
 +0:vgt     = 7.187e-14 0:vop     = 2.785e-13 0:vss     = 2.852e-13
 +0:vst     = 1.215e-13 2:io      = 1.503e-15 2:rx      = 4.817e-14
 +3:1       = 3.228e-14 3:b       = 5.858e-14 3:cn2     = 4.103e-14
 +3:cp2     = 4.157e-14 3:cr1     = 6.394e-15 3:cr2     = 2.365e-14
 +3:rb      = 1.649e-14 3:xx      = 2.027e-13

 

 ****  voltage sources

 subckt                                                         
 element  0:vtd      0:vtg      0:vd       0:vs       0:vopx    
  volts      2.0000     1.5000     3.3000     0.         2.6342 
  current -1.000e-06    0.      -5.706e-06  6.696e-06    0.     
  power    2.000e-06    0.       1.883e-05    0.         0.     

     total voltage source power dissipation=  2.083e-05       watts



 ***** current sources

 subckt                        
 element  0:iin      0:it      
  volts      2.2940     0.9928 
  current  1.000e-06  1.000e-06
  power   -2.294e-06 -9.928e-07


     total current source power dissipation=-3.287e-06       watts

 **** resistors

 subckt   xib       
 element  2:r1      
  r value  1.000e+06
  v drop   5.103e-02
  current  5.103e-08
  power    2.604e-09


 **** voltage-controlled voltage sources


 subckt     xib     
 element  2:eio     
  volts      0.6943 
  current  1.025e-08





 **** mosfets


 subckt              xcmb       xcmb       xcmb       xib        xib       
 element  0:mt       1:mc0      1:mc1      1:mc2      2:mp       2:mpb     
 model    0:nch.1    0:pch.2    0:pch.2    0:nch.1    0:pch.6    0:pch.6   
 region     Saturati   Saturati   Saturati   Saturati     Cutoff     Cutoff
  id       1.000e-06 -1.000e-06 -4.598e-06  4.598e-06 -5.099e-08 -1.025e-08
  ibs     -1.600e-18  2.118e-19  9.738e-19 -7.712e-18  1.117e-20  2.246e-21
  ibd     -7.095e-15  1.634e-16  5.561e-11 -5.247e-15  1.090e-11  4.253e-13
  vgs        0.5072    -1.0060    -1.0060     0.6943    -0.6658    -0.6658 
  vds        1.0072    -1.0060    -2.6057     0.6943    -3.2489    -2.6057 
  vbs        0.         0.         0.         0.         0.         0.     
  vth        0.4375    -0.8702    -0.8596     0.4356    -0.8202    -0.8303 
  vdsat      0.1142    -0.1814    -0.1900     0.2567  -5.122e-02 -5.046e-02
  vod      6.972e-02   -0.1358    -0.1464     0.2587     0.1544     0.1645 
  beta     2.039e-04  7.284e-05  2.918e-04  1.383e-04  3.537e-04  8.820e-05
  gam eff    0.4621     0.3947     0.3947     0.4573     0.4029     0.4029 
  gm       1.448e-05  1.047e-05  4.628e-05  3.177e-05  1.029e-06  2.104e-07
  gds      1.956e-08  1.030e-07  3.588e-07  5.536e-08  1.708e-08  3.529e-09
  gmb      4.344e-06  2.277e-06  1.005e-05  9.283e-06  2.283e-07  4.671e-08
  cdtot    5.702e-15  2.598e-15  7.994e-15  4.298e-15  5.592e-15  1.503e-15
  cgtot    7.187e-14  5.280e-15  2.112e-14  6.110e-14  3.886e-15  9.716e-16
  cstot    8.029e-14  8.408e-15  3.363e-14  7.363e-14  1.071e-14  2.677e-15
  cbtot    4.118e-14  7.331e-15  2.692e-14  3.051e-14  1.711e-14  4.382e-15
  cgs      5.595e-14  4.120e-15  1.648e-14  5.238e-14  7.686e-16  1.922e-16
  cgd      1.046e-15  2.837e-16  1.135e-15  7.365e-16  7.686e-16  1.922e-16



 subckt   xib        xop1       xop1       xop1       xop1       xop1      
 element  2:mn       3:mc1      3:mc2      3:mc3      3:m1       3:m2      
 model    0:nch.3    0:pch.4    0:nch.3    0:nch.2    0:nch.1    0:nch.1   
 region       Linear   Saturati     Cutoff     Cutoff     Cutoff     Linear
  id       5.103e-08 -4.690e-08  4.685e-08  4.687e-08  3.351e-11  7.471e-11
  ibs     -1.826e-14  1.027e-20 -3.673e-14 -8.753e-20 -1.911e-17 -1.911e-17
  ibd     -1.827e-14  1.159e-16 -1.402e-11 -3.438e-15 -7.279e-14 -1.928e-17
  vgs        0.6433    -0.9328     0.3405     0.3539   5.102e-02    0.6943 
  vds      5.816e-05   -0.9328     2.0133     0.3539     2.8179   6.153e-07
  vbs     -5.103e-02    0.        -0.3539     0.      -6.969e-05 -6.969e-05
  vth        0.4873    -0.8888     0.5520     0.4524     0.4446     0.4485 
  vdsat      0.1580    -0.1105   4.389e-02  4.559e-02  4.198e-02    0.2394 
  vod        0.1560  -4.398e-02   -0.2116  -9.855e-02   -0.3936     0.2458 
  beta     6.625e-03  1.106e-05  1.061e-02  4.027e-04  5.343e-04  5.247e-04
  gam eff    0.5254     0.3553     0.5203     0.4612     0.4618     0.4618 
  gm       3.448e-07  6.367e-07  1.348e-06  1.160e-06  9.843e-10  2.990e-10
  gds      8.802e-04  1.788e-09  1.476e-08  6.853e-09  7.204e-12  1.216e-04
  gmb      9.600e-08  1.478e-07  3.400e-07  3.449e-07  3.271e-10  9.183e-11
  cdtot    4.650e-14  1.987e-15  2.598e-14  2.816e-15  4.989e-15  4.621e-14
  cgtot    3.720e-14  1.361e-14  2.216e-14  3.216e-15  1.438e-14  4.807e-14
  cstot    4.817e-14  1.332e-14  3.178e-14  3.054e-15  6.805e-15  4.872e-14
  cbtot    4.316e-14  1.086e-14  5.929e-14  7.377e-15  2.199e-14  2.469e-14
  cgs      1.820e-14  8.667e-15  5.155e-15  4.270e-16  1.046e-15  2.364e-14
  cgd      1.820e-14  1.922e-16  5.155e-15  4.270e-16  1.046e-15  2.364e-14



 subckt   xop1       xop1       xop1       xop1       xop1       xop1      
 element  3:m3       3:m4       3:mb       3:mr1      3:mcr1     3:mcr4    
 model    0:pch.2    0:pch.2    0:nch.2    0:pch.4    0:pch.2    0:pch.5   
 region       Cutoff     Cutoff     Cutoff     Cutoff     Cutoff     Cutoff
  id      -3.825e-11 -6.810e-11  1.110e-10 -7.059e-18 -6.637e-11 -1.389e-10
  ibs      8.063e-24  1.486e-23 -2.074e-22    0.       1.448e-23  3.067e-23
  ibd      2.059e-16  7.721e-15 -9.314e-18  8.645e-24  5.746e-15  2.318e-16
  vgs       -0.4820    -0.4820     0.3539    -0.5812    -0.4820    -0.5342 
  vds       -0.4820    -3.2999   6.969e-05 -1.916e-09   -3.1664    -0.5342 
  vbs        0.         0.         0.         0.         0.         0.     
  vth       -0.8686    -0.8499     0.4531    -0.8907    -0.8508    -0.8799 
  vdsat   -4.825e-02 -4.826e-02  4.552e-02 -4.505e-02 -4.826e-02 -4.789e-02
  vod        0.3866     0.3679  -9.929e-02    0.3095     0.3688     0.3457 
  beta     1.033e-04  1.039e-04  4.027e-04  1.117e-05  1.039e-04  9.570e-05
  gam eff    0.3948     0.3948     0.4612     0.3553     0.3948     0.3889 
  gm       1.057e-09  1.868e-09  2.576e-09  1.561e-16  1.821e-09  3.681e-09
  gds      9.217e-12  1.315e-11  1.592e-06  3.684e-09  1.285e-11  2.889e-11
  gmb      2.683e-10  4.685e-10  7.747e-10  3.973e-17  4.570e-10  9.000e-10
  cdtot    3.720e-15  2.309e-15  3.053e-15  2.677e-15  2.341e-15  4.412e-15
  cgtot    3.019e-15  3.019e-15  3.216e-15  7.254e-15  3.019e-15  3.438e-15
  cstot    4.448e-15  4.448e-15  3.054e-15  2.677e-15  4.448e-15  5.353e-15
  cbtot    9.687e-15  8.276e-15  7.614e-15  1.184e-14  8.308e-15  1.167e-14
  cgs      3.751e-16  3.751e-16  4.270e-16  1.922e-16  3.751e-16  3.843e-16
  cgd      3.751e-16  3.751e-16  4.270e-16  1.922e-16  3.751e-16  3.843e-16



 subckt   xop1       xop1       xop1      
 element  3:mcr5     3:mcr2     3:mcr3    
 model    0:pch.2    0:nch.6    0:nch.6   
 region       Cutoff     Cutoff     Cutoff
  id      -1.400e-10  7.244e-11  1.365e-10
  ibs      2.926e-23 -1.645e-22 -3.145e-22
  ibd      2.059e-16 -2.221e-15 -1.356e-13
  vgs       -0.5291     0.1336     0.1336 
  vds       -0.5291     0.1336     2.2367 
  vbs        0.         0.         0.     
  vth       -0.8683     0.4549     0.4450 
  vdsat   -4.829e-02  4.190e-02  4.190e-02
  vod        0.3392    -0.3213    -0.3113 
  beta     1.034e-04  3.748e-04  3.750e-04
  gam eff    0.3948     0.4931     0.4931 
  gm       3.781e-09  2.104e-09  3.958e-09
  gds      3.260e-11  4.175e-11  3.717e-11
  gmb      9.302e-10  6.533e-10  1.218e-09
  cdtot    3.667e-15  1.743e-15  1.384e-15
  cgtot    2.968e-15  1.155e-15  1.155e-15
  cstot    4.448e-15  1.803e-15  1.803e-15
  cbtot    9.582e-15  3.818e-15  3.458e-15
  cgs      3.751e-16  2.207e-16  2.207e-16
  cgd      3.751e-16  2.207e-16  2.207e-16



 ***************************************************
   ******   pole/zero analysis  
 
 
    input =  0:vopx          output = v(vop)
 
       poles (rad/sec)                 poles ( hertz)
 real            imag            real            imag            
 -4.01593k       0.              -639.156        0.              
 -120.080k       -89.9194k       -19.1114k       -14.3111k       
 -120.080k       89.9194k        -19.1114k       14.3111k        
 -553.078k       0.              -88.0250k       0.              
 -597.269k       0.              -95.0583k       0.              
 -7.33988x       0.              -1.16818x       0.              
 -15.4587x       0.              -2.46033x       0.              
 -15.6190x       0.              -2.48584x       0.              
 -71.8226x       0.              -11.4309x       0.              
 -192.119x       0.              -30.5766x       0.              
 -217.942x       0.              -34.6866x       0.              
 -404.280x       0.              -64.3431x       0.              
 -3.15708g       0.              -502.465x       0.              
 -25.6955g       0.              -4.08957g       0.              
 
       zeros (rad/sec)                 zeros ( hertz)
 real            imag            real            imag            
 -11.0469k       14.7079k        -1.75817k       2.34084k        
 -11.0469k       -14.7079k       -1.75817k       -2.34084k       
 -125.359k       -85.2733k       -19.9515k       -13.5717k       
 -125.359k       85.2733k        -19.9515k       13.5717k        
 -553.113k       0.              -88.0307k       0.              
 -597.199k       0.              -95.0472k       0.              
 -15.5585x       0.              -2.47621x       0.              
 -71.7845x       0.              -11.4249x       0.              
 -132.562x       0.              -21.0979x       0.              
 -192.119x       0.              -30.5766x       0.              
 -383.703x       0.              -61.0683x       0.              
 1.33921g        0.              213.142x        0.              
 -2.52062g       0.              -401.169x       0.              
 -20.2952g       0.              -3.23008g       0.              
 
  ***** constant factor = 4.85247m
 ******  
 ***current mirror

  ******  ac analysis tnom=  25.000 temp=  25.000 *****
   ph_0db= failed
   ph_start=  1.7993E+02
   pm= failed                         measure parameter failed

          ***** job concluded
1****** HSPICE -- B-2008.09-SP1 32-BIT (Nov 24 2008) linux ******               
 ******  
 ***current mirror

  ******  job statistics summary tnom=  25.000 temp=  25.000 *****

  ******  HSPICE Threads Information  ******
  Command Line Threads Count:                      0
  Available CPU Count:                             8
  Actual Model Evaluation(Load) Threads Count:     1
  Actual Solver Threads Count:                     1


  ******  Circuit Statistics  ******
  # nodes       =      63  # elements   =      32
  # resistors   =       1  # capacitors =       2  # inductors   =       0
  # mutual_inds =       0  # vccs       =       0  # vcvs        =       1
  # cccs        =       0  # ccvs       =       0  # volt_srcs   =       5
  # curr_srcs   =       2  # diodes     =       0  # bjts        =       0
  # jfets       =       0  # mosfets    =      21  # U elements  =       0
  # T elements  =       0  # W elements =       0  # B elements  =       0
  # S elements  =       0  # P elements =       0  # va device   =       0


  ******  Runtime Statistics (seconds)  ******

  analysis           time    # points   tot. iter  conv.iter
  op point           0.02           1         121
  ac analysis        0.21       10001       10001
  readin             0.02
  errchk             0.01
  setup              0.00
  output             0.00


           total memory used         1076  kbytes
           total cpu time            0.26 seconds
           total elapsed time        0.29 seconds
           job started at     18:16:26 04/12/2016
           job ended   at     18:16:32 04/12/2016


 Init: hspice initialization file: /usr/cad/synopsys/hspice/cur/hspice/hspice.ini
 lic: Release hspice token(s) 
