Using: /usr/bin/time -p /usr/cad/synopsys/hspice/cur/hspice/linux/hspice current.sp
 ****** HSPICE -- B-2008.09-SP1 32-BIT (Nov 24 2008) linux ******               
  Copyright (C) 2008 Synopsys, Inc. All Rights Reserved.                        
  Unpublished-rights reserved under US copyright laws.
  This program is protected by law and is subject to the 
  terms and conditions of the license agreement from Synopsys.
  Use of this program is your acceptance to be bound by the 
  license agreement. HSPICE is the trademark of Synopsys, Inc.
  Input File: current.sp                                                        
 lic:  
 lic: FLEXlm: v8.5b 
 lic: USER:   m103061608           HOSTNAME: ws40 
 lic: HOSTID: 5cf3fcb5ecc4         PID:      19492 
 lic: Using FLEXlm license file: 
 lic: 26585@lsnctu 
 lic: Checkout 1 hspice 
 lic: License/Maintenance for hspice will expire on 14-may-2016/2015.06 
 lic: FLOATING license(s) on SERVER lsnctu 
 lic:   
 Init: read install configuration file: /usr/cad/synopsys/hspice/cur/hspice/meta.cfg
 Init: hspice initialization file: /usr/cad/synopsys/hspice/cur/hspice/hspice.ini
 .option runlvl
 .options abstol=1e-7 reltol=1e-7
 + post=1 captab=1 accurate=1 ingold=1
 ***netlist***

 .param wp = 7.4u
 + lp = 0.4u
 + wn = 3u
 + ln = 0.4u
 mp vdp vgp vsp vsp pch w = 20u l = 0.4u m = 3
 mn vdn vgn vsn vsn nch w = wn l = ln m = 1

 vps vsp gnd dc = 3.3
 vpd vdp gnd dc = 2
 vpg vgp gnd dc = 2.5
 *vns vsn gnd dc = 1
 vnd vdn gnd dc = 2
 vng vgn gnd dc = 1.7

 ins vsn gnd dc = 1u
 mt vdt vgt vst vst pch w = wp l = lp m = 1
 * for us pmos channel length small is prefered to get rdsp small.  the slope fro vds_i will increase

 *itd vdt gnd dc = 1u
 vts vst gnd dc = 3.3
 *vtd vdt gnd dc = 2.6
 vtg vgt gnd dc = 2.6

 ***

 .op

 .dc ins dec 100 10n 100u
 *.dc vpg  3.3 2 0.01
 *.dc wp 1u 20u 1u
 .probe dc par('1/lx8(mp)') par('-i(mp)') par('v(vdp)-v(vgp)') i(mt) i(mp) i(mn)
 + gmn=lx7(mn) rdsn=lx8(mn) gmrdn=par('lx7(mn)*lx8(mn)')
 .print dc gmn=lx7(mn) rdsn=lx8(mn) gmrdn=par('lx7(mn)/lx8(mn)')
 *.meas dc rdsval find par('1/lx8(mp)') when v(vgp)=2.5
 *.meas dc ival find par('-i(mp)') when v(vgp)=2.5
 .end


 **warning**  the accurate option increases  the cpu time but the results
                are more accurate.
 ***accurate option sets default value of the options: 
 lvltim= 4         dvdt= 3       relvar= 200.00m absvar= 200.00m
     ft= 200.00m relmos=  10.00m
 (used for FFT control ) fft_accurate= 1
 

 
      
 ******  
 *drain source conductance

  ******  dc transfer curves tnom=  25.000 temp=  25.000 *****
x

        amps        gmn         rdsn         gmrdn   
                                                     
  1.0000e-08    2.780e-07    4.263e-09     65.2197   
  1.0233e-08    2.844e-07    4.362e-09     65.2167   
  1.0471e-08    2.909e-07    4.461e-09     65.2137   
  1.0715e-08    2.976e-07    4.564e-09     65.2105   
  1.0965e-08    3.044e-07    4.668e-09     65.2073   
  1.1220e-08    3.113e-07    4.775e-09     65.2040   
  1.1482e-08    3.185e-07    4.884e-09     65.2006   
  1.1749e-08    3.257e-07    4.996e-09     65.1971   
  1.2023e-08    3.332e-07    5.110e-09     65.1935   
  1.2303e-08    3.408e-07    5.227e-09     65.1899   
  1.2589e-08    3.485e-07    5.347e-09     65.1861   
  1.2882e-08    3.565e-07    5.469e-09     65.1823   
  1.3183e-08    3.646e-07    5.594e-09     65.1783   
  1.3490e-08    3.729e-07    5.722e-09     65.1743   
  1.3804e-08    3.815e-07    5.853e-09     65.1702   
  1.4125e-08    3.901e-07    5.987e-09     65.1660   
  1.4454e-08    3.990e-07    6.124e-09     65.1617   
  1.4791e-08    4.081e-07    6.264e-09     65.1574   
  1.5136e-08    4.174e-07    6.407e-09     65.1529   
  1.5488e-08    4.269e-07    6.553e-09     65.1484   
  1.5849e-08    4.367e-07    6.703e-09     65.1438   
  1.6218e-08    4.466e-07    6.856e-09     65.1391   
  1.6596e-08    4.568e-07    7.013e-09     65.1343   
  1.6982e-08    4.672e-07    7.173e-09     65.1294   
  1.7378e-08    4.778e-07    7.337e-09     65.1245   
  1.7783e-08    4.887e-07    7.504e-09     65.1195   
  1.8197e-08    4.998e-07    7.676e-09     65.1144   
  1.8621e-08    5.112e-07    7.851e-09     65.1093   
  1.9055e-08    5.228e-07    8.030e-09     65.1040   
  1.9498e-08    5.347e-07    8.213e-09     65.0988   
  1.9953e-08    5.468e-07    8.401e-09     65.0934   
  2.0417e-08    5.593e-07    8.592e-09     65.0879   
  2.0893e-08    5.720e-07    8.788e-09     65.0824   
  2.1380e-08    5.850e-07    8.989e-09     65.0769   
  2.1878e-08    5.983e-07    9.194e-09     65.0712   
  2.2387e-08    6.118e-07    9.403e-09     65.0655   
  2.2909e-08    6.257e-07    9.618e-09     65.0598   
  2.3442e-08    6.399e-07    9.837e-09     65.0540   
  2.3988e-08    6.545e-07    1.006e-08     65.0481   
  2.4547e-08    6.693e-07    1.029e-08     65.0422   
  2.5119e-08    6.845e-07    1.052e-08     65.0362   
  2.5704e-08    7.000e-07    1.076e-08     65.0302   
  2.6303e-08    7.159e-07    1.101e-08     65.0241   
  2.6915e-08    7.321e-07    1.126e-08     65.0180   
  2.7542e-08    7.487e-07    1.152e-08     65.0118   
  2.8184e-08    7.657e-07    1.178e-08     65.0056   
  2.8840e-08    7.830e-07    1.205e-08     64.9994   
  2.9512e-08    8.007e-07    1.232e-08     64.9931   
  3.0200e-08    8.189e-07    1.260e-08     64.9868   
  3.0903e-08    8.374e-07    1.289e-08     64.9804   
  3.1623e-08    8.564e-07    1.318e-08     64.9740   
  3.2359e-08    8.758e-07    1.348e-08     64.9676   
  3.3113e-08    8.956e-07    1.379e-08     64.9612   
  3.3884e-08    9.158e-07    1.410e-08     64.9547   
  3.4674e-08    9.365e-07    1.442e-08     64.9483   
  3.5481e-08    9.577e-07    1.475e-08     64.9418   
  3.6308e-08    9.794e-07    1.508e-08     64.9353   
  3.7154e-08    1.002e-06    1.542e-08     64.9288   
  3.8019e-08    1.024e-06    1.577e-08     64.9223   
  3.8905e-08    1.047e-06    1.613e-08     64.9158   
  3.9811e-08    1.071e-06    1.650e-08     64.9093   
  4.0738e-08    1.095e-06    1.687e-08     64.9028   
  4.1687e-08    1.120e-06    1.726e-08     64.8963   
  4.2658e-08    1.145e-06    1.765e-08     64.8899   
  4.3652e-08    1.171e-06    1.805e-08     64.8834   
  4.4668e-08    1.197e-06    1.846e-08     64.8770   
  4.5709e-08    1.224e-06    1.887e-08     64.8706   
  4.6774e-08    1.252e-06    1.930e-08     64.8642   
  4.7863e-08    1.280e-06    1.974e-08     64.8579   
  4.8978e-08    1.309e-06    2.019e-08     64.8516   
  5.0119e-08    1.339e-06    2.064e-08     64.8454   
  5.1286e-08    1.369e-06    2.111e-08     64.8391   
  5.2481e-08    1.400e-06    2.159e-08     64.8330   
  5.3703e-08    1.431e-06    2.208e-08     64.8269   
  5.4954e-08    1.463e-06    2.258e-08     64.8209   
  5.6234e-08    1.496e-06    2.309e-08     64.8149   
  5.7544e-08    1.530e-06    2.361e-08     64.8090   
  5.8884e-08    1.564e-06    2.414e-08     64.8032   
  6.0256e-08    1.600e-06    2.469e-08     64.7975   
  6.1660e-08    1.636e-06    2.525e-08     64.7919   
  6.3096e-08    1.672e-06    2.582e-08     64.7863   
  6.4565e-08    1.710e-06    2.640e-08     64.7809   
  6.6069e-08    1.749e-06    2.699e-08     64.7755   
  6.7608e-08    1.788e-06    2.760e-08     64.7703   
  6.9183e-08    1.828e-06    2.823e-08     64.7652   
  7.0795e-08    1.869e-06    2.886e-08     64.7602   
  7.2444e-08    1.911e-06    2.951e-08     64.7554   
  7.4131e-08    1.954e-06    3.018e-08     64.7507   
  7.5858e-08    1.998e-06    3.086e-08     64.7461   
  7.7625e-08    2.043e-06    3.155e-08     64.7417   
  7.9433e-08    2.089e-06    3.226e-08     64.7374   
  8.1283e-08    2.136e-06    3.299e-08     64.7333   
  8.3176e-08    2.183e-06    3.373e-08     64.7293   
  8.5114e-08    2.232e-06    3.449e-08     64.7256   
  8.7096e-08    2.283e-06    3.527e-08     64.7220   
  8.9125e-08    2.334e-06    3.606e-08     64.7186   
  9.1201e-08    2.386e-06    3.687e-08     64.7154   
  9.3325e-08    2.440e-06    3.770e-08     64.7124   
  9.5499e-08    2.494e-06    3.855e-08     64.7096   
  9.7724e-08    2.550e-06    3.941e-08     64.7071   
  1.0000e-07    2.607e-06    4.030e-08     64.7047   
  1.0233e-07    2.666e-06    4.120e-08     64.7026   
  1.0471e-07    2.725e-06    4.212e-08     64.7007   
  1.0715e-07    2.786e-06    4.307e-08     64.6991   
  1.0965e-07    2.849e-06    4.403e-08     64.6978   
  1.1220e-07    2.913e-06    4.502e-08     64.6967   
  1.1482e-07    2.978e-06    4.603e-08     64.6958   
  1.1749e-07    3.045e-06    4.706e-08     64.6953   
  1.2023e-07    3.113e-06    4.811e-08     64.6950   
  1.2303e-07    3.182e-06    4.919e-08     64.6950   
  1.2589e-07    3.253e-06    5.029e-08     64.6954   
  1.2882e-07    3.326e-06    5.141e-08     64.6960   
  1.3183e-07    3.401e-06    5.256e-08     64.6970   
  1.3490e-07    3.477e-06    5.374e-08     64.6983   
  1.3804e-07    3.554e-06    5.494e-08     64.6999   
  1.4125e-07    3.634e-06    5.616e-08     64.7019   
  1.4454e-07    3.715e-06    5.742e-08     64.7042   
  1.4791e-07    3.798e-06    5.870e-08     64.7069   
  1.5136e-07    3.883e-06    6.000e-08     64.7099   
  1.5488e-07    3.970e-06    6.134e-08     64.7133   
  1.5849e-07    4.058e-06    6.271e-08     64.7171   
  1.6218e-07    4.149e-06    6.410e-08     64.7213   
  1.6596e-07    4.242e-06    6.553e-08     64.7259   
  1.6982e-07    4.336e-06    6.699e-08     64.7309   
  1.7378e-07    4.433e-06    6.848e-08     64.7364   
  1.7783e-07    4.532e-06    7.000e-08     64.7422   
  1.8197e-07    4.633e-06    7.155e-08     64.7485   
  1.8621e-07    4.736e-06    7.314e-08     64.7552   
  1.9055e-07    4.842e-06    7.476e-08     64.7624   
  1.9498e-07    4.950e-06    7.642e-08     64.7700   
  1.9953e-07    5.060e-06    7.812e-08     64.7781   
  2.0417e-07    5.173e-06    7.985e-08     64.7866   
  2.0893e-07    5.288e-06    8.162e-08     64.7956   
  2.1380e-07    5.406e-06    8.342e-08     64.8052   
  2.1878e-07    5.527e-06    8.527e-08     64.8152   
  2.2387e-07    5.650e-06    8.715e-08     64.8257   
  2.2909e-07    5.775e-06    8.908e-08     64.8367   
  2.3442e-07    5.904e-06    9.104e-08     64.8482   
  2.3988e-07    6.035e-06    9.305e-08     64.8603   
  2.4547e-07    6.170e-06    9.511e-08     64.8728   
  2.5119e-07    6.307e-06    9.720e-08     64.8859   
  2.5704e-07    6.447e-06    9.934e-08     64.8996   
  2.6303e-07    6.591e-06    1.015e-07     64.9138   
  2.6915e-07    6.737e-06    1.038e-07     64.9285   
  2.7542e-07    6.887e-06    1.060e-07     64.9438   
  2.8184e-07    7.040e-06    1.084e-07     64.9597   
  2.8840e-07    7.196e-06    1.108e-07     64.9761   
  2.9512e-07    7.356e-06    1.132e-07     64.9931   
  3.0200e-07    7.520e-06    1.157e-07     65.0106   
  3.0903e-07    7.686e-06    1.182e-07     65.0288   
  3.1623e-07    7.857e-06    1.208e-07     65.0475   
  3.2359e-07    8.031e-06    1.234e-07     65.0668   
  3.3113e-07    8.209e-06    1.261e-07     65.0868   
  3.3884e-07    8.391e-06    1.289e-07     65.1073   
  3.4674e-07    8.577e-06    1.317e-07     65.1284   
  3.5481e-07    8.768e-06    1.346e-07     65.1501   
  3.6308e-07    8.962e-06    1.375e-07     65.1724   
  3.7154e-07    9.160e-06    1.405e-07     65.1953   
  3.8019e-07    9.363e-06    1.436e-07     65.2188   
  3.8905e-07    9.570e-06    1.467e-07     65.2429   
  3.9811e-07    9.782e-06    1.499e-07     65.2677   
  4.0738e-07    9.998e-06    1.531e-07     65.2930   
  4.1687e-07    1.022e-05    1.564e-07     65.3190   
  4.2658e-07    1.044e-05    1.598e-07     65.3455   
  4.3652e-07    1.068e-05    1.633e-07     65.3727   
  4.4668e-07    1.091e-05    1.668e-07     65.4005   
  4.5709e-07    1.115e-05    1.704e-07     65.4289   
  4.6774e-07    1.140e-05    1.741e-07     65.4579   
  4.7863e-07    1.165e-05    1.779e-07     65.4875   
  4.8978e-07    1.190e-05    1.817e-07     65.5177   
  5.0119e-07    1.217e-05    1.856e-07     65.5485   
  5.1286e-07    1.243e-05    1.896e-07     65.5799   
  5.2481e-07    1.271e-05    1.937e-07     65.6119   
  5.3703e-07    1.299e-05    1.978e-07     65.6445   
  5.4954e-07    1.327e-05    2.021e-07     65.6776   
  5.6234e-07    1.356e-05    2.064e-07     65.7114   
  5.7544e-07    1.386e-05    2.108e-07     65.7457   
  5.8884e-07    1.416e-05    2.153e-07     65.7805   
  6.0256e-07    1.447e-05    2.199e-07     65.8160   
  6.1660e-07    1.479e-05    2.246e-07     65.8520   
  6.3096e-07    1.511e-05    2.294e-07     65.8885   
  6.4565e-07    1.544e-05    2.343e-07     65.9256   
  6.6069e-07    1.578e-05    2.393e-07     65.9632   
  6.7608e-07    1.613e-05    2.443e-07     66.0014   
  6.9183e-07    1.648e-05    2.495e-07     66.0400   
  7.0795e-07    1.684e-05    2.548e-07     66.0792   
  7.2444e-07    1.720e-05    2.602e-07     66.1189   
  7.4131e-07    1.758e-05    2.657e-07     66.1590   
  7.5858e-07    1.796e-05    2.713e-07     66.1996   
  7.7625e-07    1.835e-05    2.770e-07     66.2407   
  7.9433e-07    1.874e-05    2.828e-07     66.2823   
  8.1283e-07    1.915e-05    2.887e-07     66.3243   
  8.3176e-07    1.956e-05    2.948e-07     66.3667   
  8.5114e-07    1.999e-05    3.010e-07     66.4095   
  8.7096e-07    2.042e-05    3.073e-07     66.4528   
  8.9125e-07    2.086e-05    3.137e-07     66.4964   
  9.1201e-07    2.131e-05    3.202e-07     66.5404   
  9.3325e-07    2.177e-05    3.269e-07     66.5848   
  9.5499e-07    2.223e-05    3.337e-07     66.6295   
  9.7724e-07    2.271e-05    3.406e-07     66.6746   
  1.0000e-06    2.320e-05    3.477e-07     66.7200   
  1.0233e-06    2.369e-05    3.548e-07     66.7657   
  1.0471e-06    2.420e-05    3.622e-07     66.8117   
  1.0715e-06    2.471e-05    3.696e-07     66.8579   
  1.0965e-06    2.524e-05    3.773e-07     66.9044   
  1.1220e-06    2.578e-05    3.850e-07     66.9511   
  1.1482e-06    2.632e-05    3.929e-07     66.9981   
  1.1749e-06    2.688e-05    4.009e-07     67.0453   
  1.2023e-06    2.745e-05    4.091e-07     67.0926   
  1.2303e-06    2.803e-05    4.175e-07     67.1401   
  1.2589e-06    2.862e-05    4.260e-07     67.1878   
  1.2882e-06    2.922e-05    4.347e-07     67.2356   
  1.3183e-06    2.984e-05    4.435e-07     67.2835   
  1.3490e-06    3.046e-05    4.525e-07     67.3315   
  1.3804e-06    3.110e-05    4.616e-07     67.3795   
  1.4125e-06    3.175e-05    4.709e-07     67.4277   
  1.4454e-06    3.242e-05    4.804e-07     67.4758   
  1.4791e-06    3.309e-05    4.901e-07     67.5239   
  1.5136e-06    3.378e-05    4.999e-07     67.5721   
  1.5488e-06    3.448e-05    5.099e-07     67.6202   
  1.5849e-06    3.519e-05    5.201e-07     67.6682   
  1.6218e-06    3.592e-05    5.305e-07     67.7162   
  1.6596e-06    3.666e-05    5.410e-07     67.7640   
  1.6982e-06    3.741e-05    5.517e-07     67.8118   
  1.7378e-06    3.818e-05    5.627e-07     67.8594   
  1.7783e-06    3.896e-05    5.738e-07     67.9068   
  1.8197e-06    3.976e-05    5.851e-07     67.9540   
  1.8621e-06    4.057e-05    5.966e-07     68.0011   
  1.9055e-06    4.140e-05    6.083e-07     68.0479   
  1.9498e-06    4.224e-05    6.203e-07     68.0944   
  1.9953e-06    4.309e-05    6.324e-07     68.1406   
  2.0417e-06    4.396e-05    6.447e-07     68.1866   
  2.0893e-06    4.485e-05    6.573e-07     68.2322   
  2.1380e-06    4.575e-05    6.700e-07     68.2774   
  2.1878e-06    4.666e-05    6.830e-07     68.3223   
  2.2387e-06    4.759e-05    6.962e-07     68.3667   
  2.2909e-06    4.854e-05    7.096e-07     68.4107   
  2.3442e-06    4.951e-05    7.232e-07     68.4543   
  2.3988e-06    5.049e-05    7.371e-07     68.4974   
  2.4547e-06    5.148e-05    7.512e-07     68.5400   
  2.5119e-06    5.250e-05    7.655e-07     68.5820   
  2.5704e-06    5.353e-05    7.801e-07     68.6235   
  2.6303e-06    5.458e-05    7.948e-07     68.6644   
  2.6915e-06    5.564e-05    8.099e-07     68.7047   
  2.7542e-06    5.673e-05    8.252e-07     68.7444   
  2.8184e-06    5.783e-05    8.407e-07     68.7834   
  2.8840e-06    5.894e-05    8.565e-07     68.8217   
  2.9512e-06    6.008e-05    8.725e-07     68.8593   
  3.0200e-06    6.123e-05    8.888e-07     68.8961   
  3.0903e-06    6.241e-05    9.053e-07     68.9322   
  3.1623e-06    6.360e-05    9.221e-07     68.9675   
  3.2359e-06    6.481e-05    9.392e-07     69.0020   
  3.3113e-06    6.603e-05    9.565e-07     69.0356   
  3.3884e-06    6.728e-05    9.741e-07     69.0684   
  3.4674e-06    6.855e-05    9.920e-07     69.1002   
  3.5481e-06    6.983e-05    1.010e-06     69.1311   
  3.6308e-06    7.114e-05    1.029e-06     69.1611   
  3.7154e-06    7.246e-05    1.047e-06     69.1901   
  3.8019e-06    7.380e-05    1.066e-06     69.2181   
  3.8905e-06    7.516e-05    1.085e-06     69.2450   
  3.9811e-06    7.655e-05    1.105e-06     69.2708   
  4.0738e-06    7.795e-05    1.125e-06     69.2956   
  4.1687e-06    7.937e-05    1.145e-06     69.3193   
  4.2658e-06    8.081e-05    1.165e-06     69.3417   
  4.3652e-06    8.227e-05    1.186e-06     69.3631   
  4.4668e-06    8.376e-05    1.207e-06     69.3832   
  4.5709e-06    8.526e-05    1.228e-06     69.4020   
  4.6774e-06    8.678e-05    1.250e-06     69.4196   
  4.7863e-06    8.832e-05    1.272e-06     69.4359   
  4.8978e-06    8.989e-05    1.294e-06     69.4509   
  5.0119e-06    9.147e-05    1.317e-06     69.4646   
  5.1286e-06    9.308e-05    1.340e-06     69.4769   
  5.2481e-06    9.470e-05    1.363e-06     69.4877   
  5.3703e-06    9.635e-05    1.386e-06     69.4971   
  5.4954e-06    9.802e-05    1.410e-06     69.5051   
  5.6234e-06    9.970e-05    1.434e-06     69.5116   
  5.7544e-06    1.014e-04    1.459e-06     69.5165   
  5.8884e-06    1.031e-04    1.484e-06     69.5199   
  6.0256e-06    1.049e-04    1.509e-06     69.5218   
  6.1660e-06    1.067e-04    1.534e-06     69.5220   
  6.3096e-06    1.085e-04    1.560e-06     69.5206   
  6.4565e-06    1.103e-04    1.586e-06     69.5175   
  6.6069e-06    1.121e-04    1.613e-06     69.5127   
  6.7608e-06    1.139e-04    1.639e-06     69.5062   
  6.9183e-06    1.158e-04    1.667e-06     69.4980   
  7.0795e-06    1.177e-04    1.694e-06     69.4880   
  7.2444e-06    1.196e-04    1.722e-06     69.4761   
  7.4131e-06    1.216e-04    1.750e-06     69.4625   
  7.5858e-06    1.235e-04    1.779e-06     69.4470   
  7.7625e-06    1.255e-04    1.807e-06     69.4295   
  7.9433e-06    1.275e-04    1.837e-06     69.4102   
  8.1283e-06    1.295e-04    1.866e-06     69.3889   
  8.3176e-06    1.315e-04    1.896e-06     69.3657   
  8.5114e-06    1.336e-04    1.926e-06     69.3404   
  8.7096e-06    1.357e-04    1.957e-06     69.3131   
  8.9125e-06    1.377e-04    1.988e-06     69.2838   
  9.1201e-06    1.399e-04    2.020e-06     69.2523   
  9.3325e-06    1.420e-04    2.051e-06     69.2188   
  9.5499e-06    1.441e-04    2.083e-06     69.1831   
  9.7724e-06    1.463e-04    2.116e-06     69.1452   
  1.0000e-05    1.485e-04    2.149e-06     69.1052   
  1.0233e-05    1.507e-04    2.182e-06     69.0629   
  1.0471e-05    1.529e-04    2.215e-06     69.0184   
  1.0715e-05    1.551e-04    2.249e-06     68.9717   
  1.0965e-05    1.574e-04    2.284e-06     68.9226   
  1.1220e-05    1.597e-04    2.318e-06     68.8712   
  1.1482e-05    1.619e-04    2.353e-06     68.8175   
  1.1749e-05    1.642e-04    2.389e-06     68.7614   
  1.2023e-05    1.666e-04    2.424e-06     68.7030   
  1.2303e-05    1.689e-04    2.460e-06     68.6421   
  1.2589e-05    1.712e-04    2.497e-06     68.5788   
  1.2882e-05    1.736e-04    2.534e-06     68.5130   
  1.3183e-05    1.760e-04    2.571e-06     68.4448   
  1.3490e-05    1.784e-04    2.609e-06     68.3741   
  1.3804e-05    1.808e-04    2.647e-06     68.3008   
  1.4125e-05    1.832e-04    2.685e-06     68.2251   
  1.4454e-05    1.856e-04    2.724e-06     68.1468   
  1.4791e-05    1.881e-04    2.763e-06     68.0659   
  1.5136e-05    1.905e-04    2.803e-06     67.9825   
  1.5488e-05    1.930e-04    2.842e-06     67.8964   
  1.5849e-05    1.955e-04    2.883e-06     67.8078   
  1.6218e-05    1.980e-04    2.923e-06     67.7165   
  1.6596e-05    2.005e-04    2.964e-06     67.6226   
  1.6982e-05    2.030e-04    3.006e-06     67.5261   
  1.7378e-05    2.055e-04    3.047e-06     67.4269   
  1.7783e-05    2.080e-04    3.090e-06     67.3251   
  1.8197e-05    2.105e-04    3.132e-06     67.2206   
  1.8621e-05    2.131e-04    3.175e-06     67.1135   
  1.9055e-05    2.156e-04    3.218e-06     67.0036   
  1.9498e-05    2.182e-04    3.262e-06     66.8912   
  1.9953e-05    2.208e-04    3.306e-06     66.7760   
  2.0417e-05    2.233e-04    3.351e-06     66.6581   
  2.0893e-05    2.259e-04    3.395e-06     66.5376   
  2.1380e-05    2.285e-04    3.441e-06     66.4145   
  2.1878e-05    2.311e-04    3.486e-06     66.2887   
  2.2387e-05    2.337e-04    3.532e-06     66.1602   
  2.2909e-05    2.363e-04    3.579e-06     66.0291   
  2.3442e-05    2.389e-04    3.626e-06     65.8954   
  2.3988e-05    2.415e-04    3.673e-06     65.7590   
  2.4547e-05    2.441e-04    3.720e-06     65.6201   
  2.5119e-05    2.467e-04    3.768e-06     65.4786   
  2.5704e-05    2.494e-04    3.817e-06     65.3345   
  2.6303e-05    2.520e-04    3.865e-06     65.1880   
  2.6915e-05    2.546e-04    3.915e-06     65.0389   
  2.7542e-05    2.572e-04    3.964e-06     64.8873   
  2.8184e-05    2.598e-04    4.014e-06     64.7333   
  2.8840e-05    2.625e-04    4.065e-06     64.5768   
  2.9512e-05    2.651e-04    4.115e-06     64.4180   
  3.0200e-05    2.677e-04    4.167e-06     64.2569   
  3.0903e-05    2.704e-04    4.218e-06     64.0934   
  3.1623e-05    2.730e-04    4.270e-06     63.9277   
  3.2359e-05    2.756e-04    4.323e-06     63.7598   
  3.3113e-05    2.783e-04    4.376e-06     63.5896   
  3.3884e-05    2.809e-04    4.429e-06     63.4174   
  3.4674e-05    2.835e-04    4.483e-06     63.2431   
  3.5481e-05    2.862e-04    4.537e-06     63.0668   
  3.6308e-05    2.888e-04    4.592e-06     62.8885   
  3.7154e-05    2.914e-04    4.647e-06     62.7083   
  3.8019e-05    2.941e-04    4.703e-06     62.5262   
  3.8905e-05    2.967e-04    4.759e-06     62.3424   
  3.9811e-05    2.993e-04    4.816e-06     62.1569   
  4.0738e-05    3.020e-04    4.873e-06     61.9697   
  4.1687e-05    3.046e-04    4.930e-06     61.7809   
  4.2658e-05    3.072e-04    4.988e-06     61.5906   
  4.3652e-05    3.099e-04    5.047e-06     61.3989   
  4.4668e-05    3.125e-04    5.106e-06     61.2058   
  4.5709e-05    3.151e-04    5.165e-06     61.0114   
  4.6774e-05    3.178e-04    5.225e-06     60.8158   
  4.7863e-05    3.204e-04    5.286e-06     60.6190   
  4.8978e-05    3.231e-04    5.347e-06     60.4212   
  5.0119e-05    3.257e-04    5.409e-06     60.2224   
  5.1286e-05    3.284e-04    5.471e-06     60.0226   
  5.2481e-05    3.310e-04    5.534e-06     59.8221   
  5.3703e-05    3.337e-04    5.597e-06     59.6208   
  5.4954e-05    3.364e-04    5.661e-06     59.4188   
  5.6234e-05    3.390e-04    5.725e-06     59.2162   
  5.7544e-05    3.417e-04    5.790e-06     59.0131   
  5.8884e-05    3.444e-04    5.856e-06     58.8096   
  6.0256e-05    3.471e-04    5.922e-06     58.6057   
  6.1660e-05    3.498e-04    5.989e-06     58.4015   
  6.3096e-05    3.525e-04    6.057e-06     58.1972   
  6.4565e-05    3.552e-04    6.125e-06     57.9927   
  6.6069e-05    3.579e-04    6.194e-06     57.7881   
  6.7608e-05    3.607e-04    6.263e-06     57.5835   
  6.9183e-05    3.634e-04    6.333e-06     57.3791   
  7.0795e-05    3.661e-04    6.404e-06     57.1747   
  7.2444e-05    3.689e-04    6.475e-06     56.9706   
  7.4131e-05    3.717e-04    6.547e-06     56.7668   
  7.5858e-05    3.745e-04    6.620e-06     56.5632   
  7.7625e-05    3.773e-04    6.694e-06     56.3601   
  7.9433e-05    3.801e-04    6.768e-06     56.1574   
  8.1283e-05    3.829e-04    6.843e-06     55.9553   
  8.3176e-05    3.857e-04    6.918e-06     55.7536   
  8.5114e-05    3.885e-04    6.994e-06     55.5526   
  8.7096e-05    3.914e-04    7.071e-06     55.3522   
  8.9125e-05    3.943e-04    7.149e-06     55.1524   
  9.1201e-05    3.972e-04    7.227e-06     54.9534   
  9.3325e-05    4.001e-04    7.306e-06     54.7551   
  9.5499e-05    4.030e-04    7.386e-06     54.5576   
  9.7724e-05    4.059e-04    7.467e-06     54.3609   
  1.0000e-04    4.088e-04    7.548e-06     54.1651   
y
1****** HSPICE -- B-2008.09-SP1 32-BIT (Nov 24 2008) linux ******               
 ******  
 *drain source conductance

  ******  operating point information tnom=  25.000 temp=  25.000 *****
 ***** operating point status is all       simulation time is     0.     
    node    =voltage      node    =voltage      node    =voltage

 +0:vdn     =   2.0000  0:vdp     =   2.0000  0:vdt     =   3.3000 
 +0:vgn     =   1.7000  0:vgp     =   2.5000  0:vgt     =   2.6000 
 +0:vsn     =   1.1519  0:vsp     =   3.3000  0:vst     =   3.3000 


 maximum nodal capacitance=   3.232E-13         on node     0:vsp             

    nodal  capacitance table 

    node    =    cap      node    =    cap      node    =    cap

 +0:vdn     = 4.019e-15 0:vdp     = 6.876e-14 0:vdt     = 1.286e-14
 +0:vgn     = 2.512e-15 0:vgp     = 7.458e-14 0:vgt     = 5.027e-15
 +0:vsn     = 1.342e-14 0:vsp     = 3.232e-13 0:vst     = 3.817e-14

 

 ****  voltage sources

 subckt                                                                    
 element  0:vps      0:vpd      0:vpg      0:vnd      0:vng      0:vts     
  volts      3.3000     2.0000     2.5000     2.0000     1.7000     3.3000 
  current -6.254e-05  6.254e-05    0.      -1.000e-06    0.         0.     
  power    2.064e-04 -1.251e-04    0.       2.000e-06    0.         0.     

 subckt             
 element  0:vtg     
  volts      2.6000 
  current    0.     
  power      0.     

     total voltage source power dissipation=  8.330e-05       watts



 ***** current sources

 subckt             
 element  0:ins     
  volts      1.1519 
  current  1.000e-06
  power   -1.152e-06


     total current source power dissipation=-1.152e-06       watts


 **** mosfets


 subckt                                   
 element  0:mp       0:mn       0:mt      
 model    0:pch.12   0:nch.3    0:pch.3   
 region     Saturati     Cutoff     Cutoff
  id      -6.254e-05  1.000e-06  1.416e-19
  ibs      1.230e-17 -1.721e-18    0.     
  ibd      3.432e-13 -4.669e-15 -2.272e-28
  vgs       -0.8000     0.5481    -0.7000 
  vds       -1.3000     0.8481   8.438e-15
  vbs        0.         0.         0.     
  vth       -0.6935     0.5649    -0.7327 
  vdsat     -0.1374   5.676e-02 -6.353e-02
  vod       -0.1065  -1.684e-02  3.269e-02
  beta     7.610e-03  1.628e-03  9.233e-04
  gam eff    0.4662     0.5474     0.4600 
  gm       8.518e-04  2.319e-05  2.394e-18
  gds      2.540e-05  3.476e-07  1.678e-05
  gmb      1.795e-04  6.349e-06  5.269e-19
  cdtot    6.876e-14  4.019e-15  1.286e-14
  cgtot    7.458e-14  2.512e-15  5.027e-15
  cstot    1.562e-13  4.712e-15  1.286e-14
  cbtot    1.670e-13  8.710e-15  2.530e-14
  cgs      5.429e-14  6.333e-16  1.363e-15
  cgd      1.101e-14  6.333e-16  1.363e-15




          ***** job concluded
1****** HSPICE -- B-2008.09-SP1 32-BIT (Nov 24 2008) linux ******               
 ******  
 *drain source conductance

  ******  job statistics summary tnom=  25.000 temp=  25.000 *****

  ******  HSPICE Threads Information  ******
  Command Line Threads Count:                      0
  Available CPU Count:                             8
  Actual Model Evaluation(Load) Threads Count:     1
  Actual Solver Threads Count:                     1


  ******  Circuit Statistics  ******
  # nodes       =      19  # elements   =      14
  # resistors   =       0  # capacitors =       0  # inductors   =       0
  # mutual_inds =       0  # vccs       =       0  # vcvs        =       0
  # cccs        =       0  # ccvs       =       0  # volt_srcs   =      10
  # curr_srcs   =       1  # diodes     =       0  # bjts        =       0
  # jfets       =       0  # mosfets    =       3  # U elements  =       0
  # T elements  =       0  # W elements =       0  # B elements  =       0
  # S elements  =       0  # P elements =       0  # va device   =       0


  ******  Runtime Statistics (seconds)  ******

  analysis           time    # points   tot. iter  conv.iter
  op point           0.00           1           8
  dc sweep           0.01         401         812
  readin             0.03
  errchk             0.00
  setup              0.00
  output             0.00


           total memory used          206  kbytes
           total cpu time            0.05 seconds
           total elapsed time        0.21 seconds
           job started at     01:10:06 12/20/2015
           job ended   at     01:10:07 12/20/2015


 Init: hspice initialization file: /usr/cad/synopsys/hspice/cur/hspice/hspice.ini
 lic: Release hspice token(s) 
