Using: /usr/bin/time -p /usr/cad/synopsys/hspice/cur/hspice/linux/hspice folded.sp
 ****** HSPICE -- B-2008.09-SP1 32-BIT (Nov 24 2008) linux ******               
  Copyright (C) 2008 Synopsys, Inc. All Rights Reserved.                        
  Unpublished-rights reserved under US copyright laws.
  This program is protected by law and is subject to the 
  terms and conditions of the license agreement from Synopsys.
  Use of this program is your acceptance to be bound by the 
  license agreement. HSPICE is the trademark of Synopsys, Inc.
  Input File: folded.sp                                                         
 lic:  
 lic: FLEXlm: v8.5b 
 lic: USER:   m103061608           HOSTNAME: ws34 
 lic: HOSTID: e41f1366b76c         PID:      15776 
 lic: Using FLEXlm license file: 
 lic: 26585@lsnctu 
 lic: Checkout 1 hspice 
 lic: License/Maintenance for hspice will expire on 14-may-2016/2015.06 
 lic: FLOATING license(s) on SERVER lsnctu 
 lic:   
 Init: read install configuration file: /usr/cad/synopsys/hspice/cur/hspice/meta.cfg
 Init: hspice initialization file: /usr/cad/synopsys/hspice/cur/hspice/hspice.ini
 .option runlvl
 .option post acout=0 accurate=1 dcon=1 converge=1 gmindc=1.0000e-12 captab=1 unwrap=1
 + ingold=1

 ***param***
 .param
 +comon		= 2
 +bias       = 2.4
 +bias1		= 1.3
 +bias2		= 0.6
 +supplyp	= 3.3
 +supplyn	= 0
 +diff			= 0
 ***netlist***

 *.subckt op_fc vdd vss vinp vinn vop cp cp2 cn
 ****input stage***
 *mn	1	vinn b	 b	 nch w = 3u   l = 1u  m = 2
 *mp	2	vinp b	 b	 nch w = 3u   l = 1u  m = 2
 *mb1	b	cn	 01  vss nch w = 1u   l = 4u  m = 2
 *mb2	01	cn	 02  vss nch w = 1u   l = 4u  m = 2
 *mb3	02	cn	 vss vss nch w = 1u   l = 4u  m = 2
 ****output stage***
 *m1  1   cp2 vdd vdd pch w = 3u   l = 2u  m = 3
 *m2  2   cp2 vdd vdd pch w = 3u   l = 2u  m = 3
 *m3	von cp	1   1   pch w = 5u   l = 1u  m = 2      * gm*rds = 50 (id = 200n)
 *m4	vop	cp	2   2   pch w = 5u   l = 1u  m = 2
 *m5  von	cn  5   vss nch w = 5u   l = 1u  m = 2
 *m6  vop	cn  6   vss nch w = 5u   l = 1u  m = 2
 *m7  5   von vss vss nch w = 3u   l = 5u  m = 1
 *m8  6   von vss vss nch w = 3u   l = 5u  m = 1
 *.ends
 .subckt op_fc vdd vss vinp vinn vop cp cn
 ***input stage***
 mn	1	vinn b	 vss	 nch w = 3u   l = 5u  m = 2
 mp	2	vinp b	 vss	 nch w = 3u   l = 5u  m = 2
 mb 	b	cn2	 vss  vss nch w = 5u   l = 1u  m = 4
 ***output stage***
 m1  1   cp2 vdd vdd pch w = 1u   l = 5u m = 2
 m2  2   cp2 vdd vdd pch w = 1u   l = 5u m = 2
 m3	von cp	1   1   pch w = 2u   l = 1u  m = 1      * gm*rds = 50 (id = 200n)
 m4	vop	cp	2   2   pch w = 2u   l = 1u  m = 1
 m5  von	cn  5   vss nch w = 2u   l = 1u  m = 1
 m6  vop	cn  6   vss nch w = 2u   l = 1u  m = 1
 m7  5   von vss vss nch w = 3u   l = 5u  m = 1
 m8  6   von vss vss nch w = 3u   l = 5u  m = 1
 mc1 cp2 cp2 vdd vdd pch w = 1u   l = 5u m = 1
 mc2 cp2 cn  cn2 cn2 nch w = 3.5u l = 1u   m = 3
 mc3 cn2 cn2 vss vss nch w = 5u   l = 1u m = 2
 .ends



 *mc4 2 cp3 vdd vdd pch w = 5u l = 0.5u m = 1
 *mc5 3 cp  2   2   pch w = 5u l = 0.5u m = 1
 *mc6	3 cn  cn2 vss nch w = 3.5u l = 1u  m = 1
 *mc7	cn2 cn2 vss vss nch w = 3.5u l = 5u  m = 1


 .subckt op vdd vss vinp vinn 2 cz
 mb	b	cz	 vdd vdd pch w = 6u  l = 5u  m = 1
 m1	1	vinn b	 b	 pch w = 1u   l = 5u  m = 1
 m2	2	vinp b	 b	 pch w = 1u   l = 5u  m = 1
 m3	1	1	 vss vss nch w = 1u   l = 1u    m = 1
 m4	2	1	 vss vss nch w = 1u   l = 1u    m = 1
 .ends
 ******
 ***current mirror***

 *.subckt cmb_bete5 vdd vss cp cn cp2
 *iin cp  vss dc = 1u
 *mc0 cp  cp  vdd vdd pch w = 5.1u l = 5u m = 1
 *mc1 cn  cp  vdd vdd pch w = 5.1u l = 5u m = 4
 *mc2 cn  cn  vss vss nch w = 3.2u  l = 5u m = 1
 ****(366n)
 *mc3 cp2 cp2 vdd vdd pch w = 5.1u l = 5u m = 3
 *mc4 cp2 cn  1   vss nch w = 1u  l = 5u m = 1
 *mc5 1   cn  2   vss nch w = 1u  l = 5u m = 1
 *mc6 2   cn vss  vss nch w = 1u  l = 5u m = 1
 *r1  rx  vss 25k
 *.ends
 .subckt cmb_bete5 vdd vss cp cn cp2 wp = 5u
 iin cp  vss dc = 1u
 mc0 cp  cp  vdd vdd pch w = 1.5u l = 1u m = 1
 mc1 cn  cp  vdd vdd pch w = 1.5u l = 1u m = 4
 mc2 cn  cn  vss vss nch w = 3.5u  l = 5u m = 1

 .ends

 *vcp2 cp2 gnd dc = 2.5454



 xcmb   vdd vss cp cn cp2 cmb_bete5


 xop    vdd vss vinp vinn vop cp cn  op_fc




 ***source***
 vd		vdd 	gnd dc supplyp
 vs		vss 	gnd dc supplyn
 vb0		b0		gnd dc bias
 vb1		b1		gnd dc bias1
 vb2		b2		gnd dc bias2

 ***input***
 vinp vinp gnd dc = 'comon+diff' ac = 1
 vinn vinn gnd dc = 'comon-diff' *ac = 1 180

 ***test***
 mt vdt vgt vst vst nch w = 5u l = 1u m = 1
 *vtd vdt gnd dc =
 vtg vgt cp2  dc = 1.7441
 vts vst gnd dc = 0
 *vtb vbt gnd
 it vdd vdt dc = 200n
 *im3,4 : 2.352e-07

 *.dc it 0n 300n 1n

 ***open loop wi loading test***


 ***cloase loop feedback test***



 ****mos resistor***




 .op

 ***sweep***
 .dc diff -0.01 0.01 0.00001

 ***probe&measuring***
 .ac dec 1000 0.1 1g
 *.tf v(voa) vinp
 *.pz v(2) vinp
 .probe dc i(m1) i(m2)	i(mt)
 .probe ac cap(von)
 +gain1st=par('vdb(2)-vdb(vinp,vinn)')	par('i(m1)-i(m2)')	phase1st=par('vp(2)')
 +nf(xop.mn) nf(xop.m1) nf(xop.m3) nf(xop.m5) nf(xop.m7)
 *+gainall=par('vdb(vop)-vdb(vinp,vinn)')		phaseall=par('vp(vop)')
 *.meas ac gain max par('vdb(vop)-vdb(vinp,vinn)')
 .meas ac gain1st max par('vdb(2, 1)-vdb(vinp,vinn)')
 *.meas ac zerodb when par('vdb(vop)-vdb(vinp,vinn)') = 0
 *.meas ac phaseatdb	find par('vp(vop)') when par('vdb(vop)-vdb(vinp,vinn)') = 0

 .noise v(vop) vinp 100

 *.alter
 *.protect
 *.lib 'mm0355v.l' ff
 *.unprotect
 *.alter
 *.protect
 *.lib 'mm0355v.l' ss
 *.unprotect

 *xop vdd vss vinp vinn vop cp cp2 cn op_fc
 *.alter
 *xop vdd vss vinp vinn vop cn op

 .end


 **warning**  the accurate option increases  the cpu time but the results
                are more accurate.
 ***accurate option sets default value of the options: 
 lvltim= 4         dvdt= 3       relvar= 200.00m absvar= 200.00m
     ft= 200.00m relmos=  10.00m
 (used for FFT control ) fft_accurate= 1
1****** HSPICE -- B-2008.09-SP1 32-BIT (Nov 24 2008) linux ******               
 ******  
 ***myop_2stage_aboveth

  ******  circuit name directory
 circuit number to circuit name directory
   number circuitname                     definition         multiplier
        0 main circuit
        1 xcmb.                           cmb_bete5          1.00 
        2 xop.                            op_fc              1.00 
 

 **warning** could not find branch element     0:m1              
      branch - output ignored
 **warning** could not find branch element     0:m2              
      branch - output ignored
 **warning**  attempt to reference undefined node     0:von             
  in the definition of cap(von,0)
   branch - output ignored

 **warning**  attempt to reference undefined node     0:2               
  in the definition of vdb(2,0)
   branch - output ignored

 **warning** could not find branch element     0:m1              
      branch - output ignored
 **warning** could not find branch element     0:m2              
      branch - output ignored
 **warning**  attempt to reference undefined node     0:2               
  in the definition of vp(2,0)
   branch - output ignored

 **warning**  attempt to reference undefined node     0:2               
  in the definition of vdb(2,1)
   branch - output ignored

 **warning** print/plot=out0         of analysis=ac  
 contains unused outputs
 this entire output statement is ignored

 
 **warning**  no dc path to ground from node        0:vgt              defined in subckt 0               now it is connected with gdcpath



 **warning** the following singular supplies were terminated to 1 meg resistor 
   supply       node1            node2
  vb0                     0:b0               defined in subckt 0                     0:0                defined in subckt 0               
  vb1                     0:b1               defined in subckt 0                     0:0                defined in subckt 0               
  vb2                     0:b2               defined in subckt 0                     0:0                defined in subckt 0               
  vtg                     0:vgt              defined in subckt 0                     0:cp2              defined in subckt 0               
      
  Opening plot unit= 15
 file=folded.pa0                                                               


 **warning** zero value is used for the non-existance
             output variable in the expression.
             you may have output variables with
             a long path name.
  *** initial damped pseudo transient completed. ***
  *** final try started ***
1****** HSPICE -- B-2008.09-SP1 32-BIT (Nov 24 2008) linux ******               
 ******  
 ***myop_2stage_aboveth

  ******  operating point information tnom=  25.000 temp=  25.000 *****
 ***** operating point status is all       simulation time is     0.     
    node    =voltage      node    =voltage      node    =voltage

 +0:b0      =   2.4000  0:b1      =   1.3000  0:b2      =   0.6000 
 +0:cn      =   0.7967  0:cp      =   2.3955  0:cp2     =  -1.7424 
 +0:vdd     =   3.3000  0:vdt     =  83.9287  0:vgt     = 1.742e-03
 +0:vinn    =   2.0000  0:vinp    =   2.0000  0:vop     =   0.4641 
 +0:vss     =   0.      0:vst     =   0.      2:1       =   3.0538 
 +2:2       =   3.0538  2:5       =   0.2699  2:6       =   0.2699 
 +2:b       =   1.2512  2:cn2     =   0.4050  2:cp2     =   2.4611 
 +2:von     =   0.4641 


 maximum nodal capacitance=   4.001E-13         on node     0:vss             

    nodal  capacitance table 

    node    =    cap      node    =    cap      node    =    cap

 +0:b0      =   0.      0:b1      =   0.      0:b2      =   0.     
 +0:cn      = 9.541e-14 0:cp      = 3.433e-14 0:cp2     =   0.     
 +0:vdd     = 1.968e-13 0:vdt     = 3.290e-15 0:vgt     = 8.623e-15
 +0:vinn    = 2.713e-14 0:vinp    = 2.713e-14 0:vop     = 5.328e-15
 +0:vss     = 4.001e-13 0:vst     = 2.262e-14 2:1       = 2.298e-14
 +2:2       = 2.298e-14 2:5       = 7.541e-15 2:6       = 7.541e-15
 +2:b       = 3.962e-14 2:cn2     = 1.108e-13 2:cp2     = 8.532e-14
 +2:von     = 4.229e-14

 

 ****  voltage sources

 subckt                                                                    
 element  0:vd       0:vs       0:vb0      0:vb1      0:vb2      0:vinp    
  volts      3.3000     0.         2.4000     1.3000     0.6000     2.0000 
  current -6.067e-06  5.867e-06 -2.400e-06 -1.300e-06 -6.000e-07    0.     
  power    2.002e-05    0.       5.760e-06  1.690e-06  3.600e-07    0.     

 subckt                                   
 element  0:vinn     0:vtg      0:vts     
  volts      2.0000     1.7441     0.     
  current    0.      -1.744e-06  2.000e-07
  power      0.       3.042e-06    0.     

     total voltage source power dissipation=  3.087e-05       watts



 ***** current sources

 subckt              xcmb      
 element  0:it       1:iin     
  volts    -80.6287     2.3955 
  current  2.000e-07  1.000e-06
  power    1.613e-05 -2.396e-06


     total current source power dissipation= 1.373e-05       watts


 **** mosfets


 subckt              xcmb       xcmb       xcmb       xop        xop       
 element  0:mt       1:mc0      1:mc1      1:mc2      2:mn       2:mp      
 model    0:nch.2    0:pch.2    0:pch.2    0:nch.1    0:nch.1    0:nch.1   
 region       Cutoff   Saturati   Saturati   Saturati     Cutoff     Cutoff
  id       1.247e-07 -1.000e-06 -4.612e-06  4.612e-06  5.893e-08  5.893e-08
  ibs     -1.996e-19  2.118e-19  9.769e-19 -7.736e-18 -9.288e-15 -9.288e-15
  ibd     -7.515e-08  1.610e-16  3.871e-11 -5.247e-15 -3.877e-13 -3.877e-13
  vgs      1.742e-03   -0.9045    -0.9045     0.7967     0.7488     0.7488 
  vds       83.9287    -0.9045    -2.5033     0.7967     1.8026     1.8026 
  vbs        0.         0.         0.         0.        -1.2512    -1.2512 
  vth        0.3814    -0.7709    -0.7603     0.5355     0.8345     0.8345 
  vdsat    4.189e-02   -0.1795    -0.1881     0.2588   5.346e-02  5.346e-02
  vod       -0.3797    -0.1336    -0.1441     0.2612  -8.566e-02 -8.566e-02
  beta     1.115e-03  7.484e-05  2.998e-04  1.363e-04  2.275e-04  2.275e-04
  gam eff    0.4693     0.3947     0.3947     0.4573     0.4254     0.4254 
  gm       3.613e-06  1.056e-05  4.685e-05  3.155e-05  1.330e-06  1.330e-06
  gds      1.107e-08  1.076e-07  3.645e-07  4.928e-08  1.756e-09  1.756e-09
  gmb      1.213e-06  2.295e-06  1.016e-05  9.246e-06  2.715e-07  2.715e-07
  cdtot    3.290e-15  2.444e-15  7.463e-15  4.630e-15  6.812e-15  6.812e-15
  cgtot    8.623e-15  5.271e-15  2.109e-14  6.111e-14  2.713e-14  2.713e-14
  cstot    7.445e-15  8.097e-15  3.239e-14  7.412e-14  7.689e-15  7.689e-15
  cbtot    1.517e-14  6.878e-15  2.520e-14  3.130e-14  3.656e-14  3.656e-14
  cgs      1.046e-15  4.109e-15  1.644e-14  5.240e-14  1.267e-15  1.267e-15
  cgd      1.046e-15  2.837e-16  1.135e-15  7.365e-16  1.267e-15  1.267e-15



 subckt   xop        xop        xop        xop        xop        xop       
 element  2:mb       2:m1       2:m2       2:m3       2:m4       2:m5      
 model    0:nch.2    0:pch.4    0:pch.4    0:pch.2    0:pch.2    0:nch.2   
 region       Cutoff   Saturati   Saturati     Cutoff     Cutoff     Cutoff
  id       1.179e-07 -1.013e-07 -1.013e-07 -4.237e-08 -4.237e-08  4.238e-08
  ibs     -1.885e-19  2.220e-20  2.220e-20  8.821e-21  8.821e-21 -3.438e-15
  ibd     -4.191e-14  2.318e-16  2.318e-16  7.506e-13  7.506e-13 -3.438e-15
  vgs        0.4050    -0.8389    -0.8389    -0.6583    -0.6583     0.5268 
  vds        1.2512    -0.2462    -0.2462    -2.5897    -2.5897     0.1942 
  vbs        0.         0.         0.         0.         0.        -0.2699 
  vth        0.5621    -0.7902    -0.7902    -0.7546    -0.7546     0.6278 
  vdsat    4.280e-02   -0.1132    -0.1132  -5.971e-02 -5.971e-02  4.633e-02
  vod       -0.1571  -4.871e-02 -4.871e-02  9.636e-02  9.636e-02   -0.1010 
  beta     4.350e-03  2.272e-05  2.272e-05  1.064e-04  1.064e-04  3.945e-04
  gam eff    0.4693     0.3553     0.3553     0.3948     0.3948     0.4546 
  gm       3.121e-06  1.355e-06  1.355e-06  8.064e-07  8.064e-07  1.073e-06
  gds      1.631e-08  1.054e-08  1.054e-08  5.887e-09  5.887e-09  8.839e-09
  gmb      9.515e-07  3.144e-07  3.144e-07  1.832e-07  1.832e-07  2.825e-07
  cdtot    2.424e-14  4.442e-15  4.442e-15  2.306e-15  2.306e-15  3.022e-15
  cgtot    3.008e-14  2.844e-14  2.844e-14  2.766e-15  2.766e-15  2.993e-15
  cstot    2.978e-14  2.804e-14  2.804e-14  4.078e-15  4.078e-15  3.132e-15
  cbtot    6.737e-14  2.180e-14  2.180e-14  7.649e-15  7.649e-15  7.439e-15
  cgs      4.184e-15  1.882e-14  1.882e-14  3.751e-16  3.751e-16  4.270e-16
  cgd      4.184e-15  3.843e-16  3.843e-16  3.751e-16  3.751e-16  4.270e-16



 subckt   xop        xop        xop        xop        xop        xop       
 element  2:m6       2:m7       2:m8       2:mc1      2:mc2      2:mc3     
 model    0:nch.2    0:nch.1    0:nch.1    0:pch.4    0:nch.2    0:nch.2   
 region       Cutoff     Cutoff     Cutoff   Saturati     Cutoff     Cutoff
  id       4.238e-08  4.238e-08  4.238e-08 -5.217e-08  5.215e-08  5.217e-08
  ibs     -3.438e-15 -7.296e-20 -7.296e-20  1.143e-20 -8.754e-20 -8.345e-20
  ibd     -3.438e-15 -4.644e-15 -4.644e-15  1.159e-16 -9.497e-12 -1.411e-14
  vgs        0.5268     0.4641     0.4641    -0.8389     0.3917     0.4050 
  vds        0.1942     0.2699     0.2699    -0.8389     2.0561     0.4050 
  vbs       -0.2699     0.         0.         0.         0.         0.     
  vth        0.6278     0.5348     0.5348    -0.7890     0.5570     0.5640 
  vdsat    4.633e-02  5.349e-02  5.349e-02   -0.1139   4.256e-02  4.276e-02
  vod       -0.1010  -7.066e-02 -7.066e-02 -4.991e-02   -0.1653    -0.1590 
  beta     3.945e-04  1.176e-04  1.176e-04  1.136e-05  2.230e-03  2.174e-03
  gam eff    0.4546     0.4547     0.4547     0.3553     0.4669     0.4693 
  gm       1.073e-06  9.088e-07  9.088e-07  6.972e-07  1.391e-06  1.385e-06
  gds      8.839e-09  2.003e-09  2.003e-09  2.021e-09  7.022e-09  8.144e-09
  gmb      2.825e-07  2.743e-07  2.743e-07  1.614e-07  4.251e-07  4.221e-07
  cdtot    3.022e-15  4.408e-15  4.408e-15  1.865e-15  1.237e-14  1.356e-14
  cgtot    2.993e-15  1.848e-14  1.848e-14  1.422e-14  1.622e-14  1.504e-14
  cstot    3.132e-15  4.712e-15  4.712e-15  1.402e-14  1.619e-14  1.489e-14
  cbtot    7.439e-15  2.507e-14  2.507e-14  1.054e-14  3.593e-14  3.512e-14
  cgs      4.270e-16  6.333e-16  6.333e-16  9.409e-15  2.209e-15  2.092e-15
  cgd      4.270e-16  6.333e-16  6.333e-16  1.922e-16  2.209e-15  2.092e-15



1****** HSPICE -- B-2008.09-SP1 32-BIT (Nov 24 2008) linux ******               
 ******  
 ***myop_2stage_aboveth

  ******  noise analysis tnom=  25.000 temp=  25.000 *****

     frequency =   0.1000       hz




 **** mosfet squared noise voltages (sq v/hz)




 element     0:mt
       rd    0.         
       rs    0.         
       id    0.         
       rx    0.         
       fn    0.         
    total    0.         




 element     1:mc0
       rd  4.751e-23    
       rs  6.906e-19    
       id  8.092e-16    
       rx  8.588e+04    
       fn  4.452e-09    
    total  4.452e-09    




 element     1:mc1
       rd  6.681e-24    
       rs  1.710e-19    
       id  1.769e-16    
       rx  1.931e+04    
       fn  1.108e-09    
    total  1.108e-09    




 element     1:mc2
       rd  1.223e-25    
       rs  8.422e-20    
       id  1.458e-16    
       rx  1.931e+04    
       fn  3.230e-11    
    total  3.230e-11    




 element     2:mn
       rd    0.         
       rs  1.926e-11    
       id    0.         
       rx  9.776e+09    
       fn  8.553e-03    
    total  8.553e-03    




 element     2:mp
       rd    0.         
       rs  1.926e-11    
       id    0.         
       rx  9.776e+09    
       fn  8.553e-03    
    total  8.553e-03    




 element     2:mb
       rd    0.         
       rs  1.174e-19    
       id    0.         
       rx  5.411e+05    
       fn  2.277e-10    
    total  2.277e-10    




 element     2:m1
       rd  2.844e-15    
       rs  1.078e-10    
       id  1.161e-06    
       rx  9.775e+09    
       fn    0.1323     
    total    0.1323     




 element     2:m2
       rd  2.844e-15    
       rs  1.078e-10    
       id  1.161e-06    
       rx  9.776e+09    
       fn    0.1323     
    total    0.1323     




 element     2:m3
       rd    0.         
       rs  1.064e-14    
       id    0.         
       rx  1.479e+08    
       fn  5.827e-05    
    total  5.827e-05    




 element     2:m4
       rd    0.         
       rs  1.064e-14    
       id    0.         
       rx  1.479e+08    
       fn  5.828e-05    
    total  5.828e-05    




 element     2:m5
       rd    0.         
       rs    0.         
       id    0.         
       rx  1.454e+07    
       fn  1.905e-07    
    total  1.905e-07    




 element     2:m6
       rd    0.         
       rs  1.237e-15    
       id    0.         
       rx  1.454e+07    
       fn  1.905e-07    
    total  1.905e-07    




 element     2:m7
       rd  4.220e-25    
       rs  2.163e-11    
       id    0.         
       rx  9.909e+09    
       fn  8.205e-03    
    total  8.205e-03    




 element     2:m8
       rd  4.220e-25    
       rs  2.163e-11    
       id    0.         
       rx  9.910e+09    
       fn  8.207e-03    
    total  8.207e-03    




 element     2:mc1
       rd  2.119e-23    
       rs  2.620e-18    
       id  2.755e-14    
       rx  2.103e+06    
       fn  3.243e-09    
    total  3.243e-09    




 element     2:mc2
       rd    0.         
       rs  3.042e-20    
       id    0.         
       rx  4.450e+05    
       fn  5.789e-11    
    total  5.789e-11    




 element     2:mc3
       rd  8.832e-23    
       rs  4.349e-19    
       id    0.         
       rx  1.658e+06    
       fn  8.427e-10    
    total  8.427e-10    




 **** total output noise voltage         =   0.2982        sq v/hz
                                         =   0.5461        v/rt hz
      transfer function value:
        v(vop)/vinp                      = 1.300e+04      
      equivalent input noise at vinp                          
                                         = 4.200e-05       /rt hz



 **** the results of the sqrt of integral (v**2 / freq)
      from fstart upto    0.1000       hz. using more freq points
      results in more accurate total noise values.

 **** total output noise voltage   =    0.            volts
 **** total equivalent input noise =    0.           



1****** HSPICE -- B-2008.09-SP1 32-BIT (Nov 24 2008) linux ******               
 ******  
 ***myop_2stage_aboveth

  ******  noise analysis tnom=  25.000 temp=  25.000 *****

     frequency =   0.1259       hz




 **** mosfet squared noise voltages (sq v/hz)




 element     0:mt
       rd    0.         
       rs    0.         
       id    0.         
       rx    0.         
       fn    0.         
    total    0.         




 element     1:mc0
       rd  4.751e-23    
       rs  6.906e-19    
       id  8.092e-16    
       rx  8.588e+04    
       fn  3.536e-09    
    total  3.537e-09    




 element     1:mc1
       rd  6.681e-24    
       rs  1.710e-19    
       id  1.769e-16    
       rx  1.931e+04    
       fn  8.799e-10    
    total  8.799e-10    




 element     1:mc2
       rd  1.223e-25    
       rs  8.422e-20    
       id  1.458e-16    
       rx  1.931e+04    
       fn  2.656e-11    
    total  2.656e-11    




 element     2:mn
       rd    0.         
       rs  1.926e-11    
       id    0.         
       rx  9.776e+09    
       fn  7.033e-03    
    total  7.033e-03    




 element     2:mp
       rd    0.         
       rs  1.926e-11    
       id    0.         
       rx  9.776e+09    
       fn  7.033e-03    
    total  7.033e-03    




 element     2:mb
       rd    0.         
       rs  1.174e-19    
       id    0.         
       rx  5.411e+05    
       fn  1.872e-10    
    total  1.872e-10    




 element     2:m1
       rd  2.844e-15    
       rs  1.078e-10    
       id  1.161e-06    
       rx  9.775e+09    
       fn    0.1051     
    total    0.1051     




 element     2:m2
       rd  2.844e-15    
       rs  1.078e-10    
       id  1.161e-06    
       rx  9.776e+09    
       fn    0.1051     
    total    0.1051     




 element     2:m3
       rd    0.         
       rs  1.064e-14    
       id    0.         
       rx  1.479e+08    
       fn  4.629e-05    
    total  4.629e-05    




 element     2:m4
       rd    0.         
       rs  1.064e-14    
       id    0.         
       rx  1.479e+08    
       fn  4.630e-05    
    total  4.630e-05    




 element     2:m5
       rd    0.         
       rs    0.         
       id    0.         
       rx  1.454e+07    
       fn  1.566e-07    
    total  1.566e-07    




 element     2:m6
       rd    0.         
       rs  1.237e-15    
       id    0.         
       rx  1.454e+07    
       fn  1.566e-07    
    total  1.566e-07    




 element     2:m7
       rd    0.         
       rs  2.163e-11    
       id    0.         
       rx  9.909e+09    
       fn  6.747e-03    
    total  6.747e-03    




 element     2:m8
       rd    0.         
       rs  2.163e-11    
       id    0.         
       rx  9.910e+09    
       fn  6.748e-03    
    total  6.748e-03    




 element     2:mc1
       rd  2.119e-23    
       rs  2.620e-18    
       id  2.755e-14    
       rx  2.103e+06    
       fn  2.576e-09    
    total  2.576e-09    




 element     2:mc2
       rd    0.         
       rs  3.042e-20    
       id    0.         
       rx  4.450e+05    
       fn  4.760e-11    
    total  4.760e-11    




 element     2:mc3
       rd  8.832e-23    
       rs  4.349e-19    
       id    0.         
       rx  1.658e+06    
       fn  6.929e-10    
    total  6.929e-10    




 **** total output noise voltage         =   0.2378        sq v/hz
                                         =   0.4877        v/rt hz
      transfer function value:
        v(vop)/vinp                      = 1.300e+04      
      equivalent input noise at vinp                          
                                         = 3.751e-05       /rt hz



 **** the results of the sqrt of integral (v**2 / freq)
      from fstart upto    0.1259       hz. using more freq points
      results in more accurate total noise values.

 **** total output noise voltage   =  8.295e-02       volts
 **** total equivalent input noise =  6.379e-06      



1****** HSPICE -- B-2008.09-SP1 32-BIT (Nov 24 2008) linux ******               
 ******  
 ***myop_2stage_aboveth

  ******  noise analysis tnom=  25.000 temp=  25.000 *****

     frequency =   0.1585       hz




 **** mosfet squared noise voltages (sq v/hz)




 element     0:mt
       rd    0.         
       rs    0.         
       id    0.         
       rx    0.         
       fn    0.         
    total    0.         




 element     1:mc0
       rd  4.751e-23    
       rs  6.906e-19    
       id  8.092e-16    
       rx  8.588e+04    
       fn  2.809e-09    
    total  2.809e-09    




 element     1:mc1
       rd  6.681e-24    
       rs  1.710e-19    
       id  1.769e-16    
       rx  1.931e+04    
       fn  6.990e-10    
    total  6.990e-10    




 element     1:mc2
       rd  1.223e-25    
       rs  8.422e-20    
       id  1.458e-16    
       rx  1.931e+04    
       fn  2.184e-11    
    total  2.184e-11    




 element     2:mn
       rd    0.         
       rs  1.926e-11    
       id    0.         
       rx  9.776e+09    
       fn  5.783e-03    
    total  5.783e-03    




 element     2:mp
       rd    0.         
       rs  1.926e-11    
       id    0.         
       rx  9.776e+09    
       fn  5.783e-03    
    total  5.783e-03    




 element     2:mb
       rd    0.         
       rs  1.174e-19    
       id    0.         
       rx  5.411e+05    
       fn  1.539e-10    
    total  1.539e-10    




 element     2:m1
       rd  2.844e-15    
       rs  1.078e-10    
       id  1.161e-06    
       rx  9.775e+09    
       fn  8.346e-02    
    total  8.346e-02    




 element     2:m2
       rd  2.844e-15    
       rs  1.078e-10    
       id  1.161e-06    
       rx  9.776e+09    
       fn  8.348e-02    
    total  8.348e-02    




 element     2:m3
       rd    0.         
       rs  1.064e-14    
       id    0.         
       rx  1.479e+08    
       fn  3.677e-05    
    total  3.677e-05    




 element     2:m4
       rd    0.         
       rs  1.064e-14    
       id    0.         
       rx  1.479e+08    
       fn  3.677e-05    
    total  3.677e-05    




 element     2:m5
       rd    0.         
       rs    0.         
       id    0.         
       rx  1.454e+07    
       fn  1.288e-07    
    total  1.288e-07    




 element     2:m6
       rd    0.         
       rs  1.237e-15    
       id    0.         
       rx  1.454e+07    
       fn  1.288e-07    
    total  1.288e-07    




 element     2:m7
       rd  1.688e-24    
       rs  2.163e-11    
       id    0.         
       rx  9.909e+09    
       fn  5.547e-03    
    total  5.547e-03    




 element     2:m8
       rd    0.         
       rs  2.163e-11    
       id    0.         
       rx  9.910e+09    
       fn  5.549e-03    
    total  5.549e-03    




 element     2:mc1
       rd  2.119e-23    
       rs  2.620e-18    
       id  2.755e-14    
       rx  2.103e+06    
       fn  2.046e-09    
    total  2.046e-09    




 element     2:mc2
       rd    0.         
       rs  3.042e-20    
       id    0.         
       rx  4.450e+05    
       fn  3.914e-11    
    total  3.914e-11    




 element     2:mc3
       rd    0.         
       rs  4.349e-19    
       id    0.         
       rx  1.658e+06    
       fn  5.698e-10    
    total  5.698e-10    




 **** total output noise voltage         =   0.1897        sq v/hz
                                         =   0.4355        v/rt hz
      transfer function value:
        v(vop)/vinp                      = 1.300e+04      
      equivalent input noise at vinp                          
                                         = 3.349e-05       /rt hz



 **** the results of the sqrt of integral (v**2 / freq)
      from fstart upto    0.1585       hz. using more freq points
      results in more accurate total noise values.

 **** total output noise voltage   =    0.1174        volts
 **** total equivalent input noise =  9.031e-06      



1****** HSPICE -- B-2008.09-SP1 32-BIT (Nov 24 2008) linux ******               
 ******  
 ***myop_2stage_aboveth

  ******  noise analysis tnom=  25.000 temp=  25.000 *****

     frequency =   0.1995       hz




 **** mosfet squared noise voltages (sq v/hz)




 element     0:mt
       rd    0.         
       rs    0.         
       id    0.         
       rx    0.         
       fn    0.         
    total    0.         




 element     1:mc0
       rd  4.751e-23    
       rs  6.906e-19    
       id  8.092e-16    
       rx  8.588e+04    
       fn  2.231e-09    
    total  2.231e-09    




 element     1:mc1
       rd  6.681e-24    
       rs  1.710e-19    
       id  1.769e-16    
       rx  1.931e+04    
       fn  5.552e-10    
    total  5.552e-10    




 element     1:mc2
       rd  1.223e-25    
       rs  8.422e-20    
       id  1.458e-16    
       rx  1.931e+04    
       fn  1.796e-11    
    total  1.796e-11    




 element     2:mn
       rd    0.         
       rs  1.926e-11    
       id    0.         
       rx  9.776e+09    
       fn  4.755e-03    
    total  4.755e-03    




 element     2:mp
       rd    0.         
       rs  1.926e-11    
       id    0.         
       rx  9.776e+09    
       fn  4.755e-03    
    total  4.755e-03    




 element     2:mb
       rd    0.         
       rs  1.174e-19    
       id    0.         
       rx  5.411e+05    
       fn  1.266e-10    
    total  1.266e-10    




 element     2:m1
       rd  2.844e-15    
       rs  1.078e-10    
       id  1.161e-06    
       rx  9.775e+09    
       fn  6.630e-02    
    total  6.630e-02    




 element     2:m2
       rd  2.844e-15    
       rs  1.078e-10    
       id  1.161e-06    
       rx  9.776e+09    
       fn  6.631e-02    
    total  6.631e-02    




 element     2:m3
       rd  6.647e-16    
       rs  1.064e-14    
       id    0.         
       rx  1.479e+08    
       fn  2.920e-05    
    total  2.920e-05    




 element     2:m4
       rd    0.         
       rs  1.064e-14    
       id    0.         
       rx  1.479e+08    
       fn  2.921e-05    
    total  2.921e-05    




 element     2:m5
       rd    0.         
       rs  1.152e-24    
       id    0.         
       rx  1.454e+07    
       fn  1.059e-07    
    total  1.059e-07    




 element     2:m6
       rd    0.         
       rs  1.237e-15    
       id    0.         
       rx  1.454e+07    
       fn  1.059e-07    
    total  1.059e-07    




 element     2:m7
       rd    0.         
       rs  2.163e-11    
       id    0.         
       rx  9.909e+09    
       fn  4.561e-03    
    total  4.561e-03    




 element     2:m8
       rd    0.         
       rs  2.163e-11    
       id    0.         
       rx  9.910e+09    
       fn  4.562e-03    
    total  4.562e-03    




 element     2:mc1
       rd    0.         
       rs  2.620e-18    
       id  2.755e-14    
       rx  2.103e+06    
       fn  1.625e-09    
    total  1.625e-09    




 element     2:mc2
       rd    0.         
       rs  3.042e-20    
       id    0.         
       rx  4.450e+05    
       fn  3.218e-11    
    total  3.218e-11    




 element     2:mc3
       rd    0.         
       rs  4.349e-19    
       id    0.         
       rx  1.658e+06    
       fn  4.685e-10    
    total  4.685e-10    




 **** total output noise voltage         =   0.1513        sq v/hz
                                         =   0.3890        v/rt hz
      transfer function value:
        v(vop)/vinp                      = 1.300e+04      
      equivalent input noise at vinp                          
                                         = 2.991e-05       /rt hz



 **** the results of the sqrt of integral (v**2 / freq)
      from fstart upto    0.1995       hz. using more freq points
      results in more accurate total noise values.

 **** total output noise voltage   =    0.1440        volts
 **** total equivalent input noise =  1.107e-05      



1****** HSPICE -- B-2008.09-SP1 32-BIT (Nov 24 2008) linux ******               
 ******  
 ***myop_2stage_aboveth

  ******  noise analysis tnom=  25.000 temp=  25.000 *****

     frequency =   0.2512       hz




 **** mosfet squared noise voltages (sq v/hz)




 element     0:mt
       rd    0.         
       rs    0.         
       id    0.         
       rx    0.         
       fn    0.         
    total    0.         




 element     1:mc0
       rd  4.751e-23    
       rs  6.906e-19    
       id  8.092e-16    
       rx  8.588e+04    
       fn  1.772e-09    
    total  1.772e-09    




 element     1:mc1
       rd  6.681e-24    
       rs  1.710e-19    
       id  1.769e-16    
       rx  1.931e+04    
       fn  4.410e-10    
    total  4.410e-10    




 element     1:mc2
       rd  1.223e-25    
       rs  8.422e-20    
       id  1.458e-16    
       rx  1.931e+04    
       fn  1.477e-11    
    total  1.477e-11    




 element     2:mn
       rd    0.         
       rs  1.926e-11    
       id    0.         
       rx  9.776e+09    
       fn  3.910e-03    
    total  3.910e-03    




 element     2:mp
       rd    0.         
       rs  1.926e-11    
       id    0.         
       rx  9.776e+09    
       fn  3.910e-03    
    total  3.910e-03    




 element     2:mb
       rd    0.         
       rs  1.174e-19    
       id    0.         
       rx  5.411e+05    
       fn  1.041e-10    
    total  1.041e-10    




 element     2:m1
       rd  2.844e-15    
       rs  1.078e-10    
       id  1.161e-06    
       rx  9.775e+09    
       fn  5.266e-02    
    total  5.266e-02    




 element     2:m2
       rd  2.844e-15    
       rs  1.078e-10    
       id  1.161e-06    
       rx  9.776e+09    
       fn  5.267e-02    
    total  5.267e-02    




 element     2:m3
       rd  6.647e-16    
       rs  1.064e-14    
       id    0.         
       rx  1.479e+08    
       fn  2.320e-05    
    total  2.320e-05    




 element     2:m4
       rd    0.         
       rs  1.064e-14    
       id    0.         
       rx  1.479e+08    
       fn  2.320e-05    
    total  2.320e-05    




 element     2:m5
       rd    0.         
       rs    0.         
       id    0.         
       rx  1.454e+07    
       fn  8.705e-08    
    total  8.705e-08    




 element     2:m6
       rd    0.         
       rs  1.237e-15    
       id    0.         
       rx  1.454e+07    
       fn  8.707e-08    
    total  8.707e-08    




 element     2:m7
       rd    0.         
       rs  2.163e-11    
       id    0.         
       rx  9.909e+09    
       fn  3.751e-03    
    total  3.751e-03    




 element     2:m8
       rd    0.         
       rs  2.163e-11    
       id    0.         
       rx  9.910e+09    
       fn  3.751e-03    
    total  3.751e-03    




 element     2:mc1
       rd    0.         
       rs  2.620e-18    
       id  2.755e-14    
       rx  2.103e+06    
       fn  1.291e-09    
    total  1.291e-09    




 element     2:mc2
       rd    0.         
       rs  3.042e-20    
       id    0.         
       rx  4.450e+05    
       fn  2.646e-11    
    total  2.646e-11    




 element     2:mc3
       rd    0.         
       rs  4.349e-19    
       id    0.         
       rx  1.658e+06    
       fn  3.852e-10    
    total  3.852e-10    




 **** total output noise voltage         =   0.1207        sq v/hz
                                         =   0.3474        v/rt hz
      transfer function value:
        v(vop)/vinp                      = 1.300e+04      
      equivalent input noise at vinp                          
                                         = 2.672e-05       /rt hz



 **** the results of the sqrt of integral (v**2 / freq)
      from fstart upto    0.2512       hz. using more freq points
      results in more accurate total noise values.

 **** total output noise voltage   =    0.1664        volts
 **** total equivalent input noise =  1.280e-05      



1****** HSPICE -- B-2008.09-SP1 32-BIT (Nov 24 2008) linux ******               
 ******  
 ***myop_2stage_aboveth

  ******  noise analysis tnom=  25.000 temp=  25.000 *****

     frequency =   0.3162       hz




 **** mosfet squared noise voltages (sq v/hz)




 element     0:mt
       rd    0.         
       rs    0.         
       id    0.         
       rx    0.         
       fn    0.         
    total    0.         




 element     1:mc0
       rd  4.751e-23    
       rs  6.906e-19    
       id  8.092e-16    
       rx  8.588e+04    
       fn  1.408e-09    
    total  1.408e-09    




 element     1:mc1
       rd  7.134e-24    
       rs  1.710e-19    
       id  1.769e-16    
       rx  1.931e+04    
       fn  3.503e-10    
    total  3.503e-10    




 element     1:mc2
       rd  1.223e-25    
       rs  8.422e-20    
       id  1.458e-16    
       rx  1.931e+04    
       fn  1.214e-11    
    total  1.214e-11    




 element     2:mn
       rd    0.         
       rs  1.926e-11    
       id    0.         
       rx  9.776e+09    
       fn  3.215e-03    
    total  3.215e-03    




 element     2:mp
       rd    0.         
       rs  1.926e-11    
       id    0.         
       rx  9.776e+09    
       fn  3.215e-03    
    total  3.215e-03    




 element     2:mb
       rd    0.         
       rs  1.174e-19    
       id    0.         
       rx  5.411e+05    
       fn  8.558e-11    
    total  8.558e-11    




 element     2:m1
       rd  2.844e-15    
       rs  1.078e-10    
       id  1.161e-06    
       rx  9.775e+09    
       fn  4.183e-02    
    total  4.183e-02    




 element     2:m2
       rd  2.844e-15    
       rs  1.078e-10    
       id  1.161e-06    
       rx  9.776e+09    
       fn  4.184e-02    
    total  4.184e-02    




 element     2:m3
       rd    0.         
       rs  1.064e-14    
       id    0.         
       rx  1.479e+08    
       fn  1.843e-05    
    total  1.843e-05    




 element     2:m4
       rd    0.         
       rs  1.064e-14    
       id    0.         
       rx  1.479e+08    
       fn  1.843e-05    
    total  1.843e-05    




 element     2:m5
       rd    0.         
       rs    0.         
       id    0.         
       rx  1.454e+07    
       fn  7.157e-08    
    total  7.157e-08    




 element     2:m6
       rd    0.         
       rs    0.         
       id    0.         
       rx  1.455e+07    
       fn  7.160e-08    
    total  7.160e-08    




 element     2:m7
       rd    0.         
       rs  2.163e-11    
       id    0.         
       rx  9.909e+09    
       fn  3.084e-03    
    total  3.084e-03    




 element     2:m8
       rd    0.         
       rs  2.163e-11    
       id    0.         
       rx  9.910e+09    
       fn  3.085e-03    
    total  3.085e-03    




 element     2:mc1
       rd  2.119e-23    
       rs  2.620e-18    
       id  2.755e-14    
       rx  2.103e+06    
       fn  1.025e-09    
    total  1.025e-09    




 element     2:mc2
       rd    0.         
       rs  3.042e-20    
       id    0.         
       rx  4.450e+05    
       fn  2.176e-11    
    total  2.176e-11    




 element     2:mc3
       rd    0.         
       rs  4.349e-19    
       id    0.         
       rx  1.658e+06    
       fn  3.167e-10    
    total  3.167e-10    




 **** total output noise voltage         = 9.631e-02       sq v/hz
                                         =   0.3103        v/rt hz
      transfer function value:
        v(vop)/vinp                      = 1.300e+04      
      equivalent input noise at vinp                          
                                         = 2.387e-05       /rt hz



 **** the results of the sqrt of integral (v**2 / freq)
      from fstart upto    0.3162       hz. using more freq points
      results in more accurate total noise values.

 **** total output noise voltage   =    0.1862        volts
 **** total equivalent input noise =  1.432e-05      



1****** HSPICE -- B-2008.09-SP1 32-BIT (Nov 24 2008) linux ******               
 ******  
 ***myop_2stage_aboveth

  ******  noise analysis tnom=  25.000 temp=  25.000 *****

     frequency =   0.3981       hz




 **** mosfet squared noise voltages (sq v/hz)




 element     0:mt
       rd    0.         
       rs    0.         
       id    0.         
       rx    0.         
       fn    0.         
    total    0.         




 element     1:mc0
       rd  4.751e-23    
       rs  6.906e-19    
       id  8.092e-16    
       rx  8.588e+04    
       fn  1.118e-09    
    total  1.118e-09    




 element     1:mc1
       rd  7.134e-24    
       rs  1.710e-19    
       id  1.769e-16    
       rx  1.931e+04    
       fn  2.783e-10    
    total  2.783e-10    




 element     1:mc2
       rd  1.223e-25    
       rs  8.422e-20    
       id  1.458e-16    
       rx  1.931e+04    
       fn  9.983e-12    
    total  9.983e-12    




 element     2:mn
       rd    0.         
       rs  1.926e-11    
       id    0.         
       rx  9.776e+09    
       fn  2.643e-03    
    total  2.643e-03    




 element     2:mp
       rd    0.         
       rs  1.926e-11    
       id    0.         
       rx  9.776e+09    
       fn  2.643e-03    
    total  2.643e-03    




 element     2:mb
       rd    0.         
       rs  1.174e-19    
       id    0.         
       rx  5.411e+05    
       fn  7.036e-11    
    total  7.036e-11    




 element     2:m1
       rd  2.844e-15    
       rs  1.078e-10    
       id  1.161e-06    
       rx  9.775e+09    
       fn  3.323e-02    
    total  3.323e-02    




 element     2:m2
       rd  2.844e-15    
       rs  1.078e-10    
       id  1.161e-06    
       rx  9.776e+09    
       fn  3.323e-02    
    total  3.323e-02    




 element     2:m3
       rd    0.         
       rs  1.064e-14    
       id    0.         
       rx  1.479e+08    
       fn  1.464e-05    
    total  1.464e-05    




 element     2:m4
       rd    0.         
       rs  1.064e-14    
       id    0.         
       rx  1.479e+08    
       fn  1.464e-05    
    total  1.464e-05    




 element     2:m5
       rd    0.         
       rs    0.         
       id    0.         
       rx  1.454e+07    
       fn  5.885e-08    
    total  5.885e-08    




 element     2:m6
       rd    0.         
       rs  4.609e-24    
       id    0.         
       rx  1.455e+07    
       fn  5.887e-08    
    total  5.887e-08    




 element     2:m7
       rd  1.813e-15    
       rs  2.163e-11    
       id    0.         
       rx  9.909e+09    
       fn  2.536e-03    
    total  2.536e-03    




 element     2:m8
       rd    0.         
       rs  2.163e-11    
       id    0.         
       rx  9.910e+09    
       fn  2.536e-03    
    total  2.536e-03    




 element     2:mc1
       rd  2.119e-23    
       rs  2.620e-18    
       id  2.755e-14    
       rx  2.103e+06    
       fn  8.146e-10    
    total  8.146e-10    




 element     2:mc2
       rd    0.         
       rs  3.042e-20    
       id    0.         
       rx  4.450e+05    
       fn  1.789e-11    
    total  1.789e-11    




 element     2:mc3
       rd  8.832e-23    
       rs  4.349e-19    
       id    0.         
       rx  1.658e+06    
       fn  2.604e-10    
    total  2.604e-10    




 **** total output noise voltage         = 7.685e-02       sq v/hz
                                         =   0.2772        v/rt hz
      transfer function value:
        v(vop)/vinp                      = 1.300e+04      
      equivalent input noise at vinp                          
                                         = 2.132e-05       /rt hz



 **** the results of the sqrt of integral (v**2 / freq)
      from fstart upto    0.3981       hz. using more freq points
      results in more accurate total noise values.

 **** total output noise voltage   =    0.2042        volts
 **** total equivalent input noise =  1.571e-05      



1****** HSPICE -- B-2008.09-SP1 32-BIT (Nov 24 2008) linux ******               
 ******  
 ***myop_2stage_aboveth

  ******  noise analysis tnom=  25.000 temp=  25.000 *****

     frequency =   0.5012       hz




 **** mosfet squared noise voltages (sq v/hz)




 element     0:mt
       rd    0.         
       rs    0.         
       id    0.         
       rx    0.         
       fn    0.         
    total    0.         




 element     1:mc0
       rd  4.751e-23    
       rs  6.906e-19    
       id  8.092e-16    
       rx  8.588e+04    
       fn  8.883e-10    
    total  8.883e-10    




 element     1:mc1
       rd  6.681e-24    
       rs  1.710e-19    
       id  1.769e-16    
       rx  1.931e+04    
       fn  2.210e-10    
    total  2.210e-10    




 element     1:mc2
       rd  1.223e-25    
       rs  8.422e-20    
       id  1.458e-16    
       rx  1.931e+04    
       fn  8.208e-12    
    total  8.209e-12    




 element     2:mn
       rd    0.         
       rs  1.926e-11    
       id    0.         
       rx  9.776e+09    
       fn  2.173e-03    
    total  2.173e-03    




 element     2:mp
       rd    0.         
       rs  1.926e-11    
       id    0.         
       rx  9.776e+09    
       fn  2.173e-03    
    total  2.173e-03    




 element     2:mb
       rd    0.         
       rs  1.174e-19    
       id    0.         
       rx  5.411e+05    
       fn  5.786e-11    
    total  5.786e-11    




 element     2:m1
       rd  2.844e-15    
       rs  1.078e-10    
       id  1.161e-06    
       rx  9.775e+09    
       fn  2.639e-02    
    total  2.639e-02    




 element     2:m2
       rd  2.844e-15    
       rs  1.078e-10    
       id  1.161e-06    
       rx  9.776e+09    
       fn  2.640e-02    
    total  2.640e-02    




 element     2:m3
       rd    0.         
       rs  1.064e-14    
       id    0.         
       rx  1.479e+08    
       fn  1.163e-05    
    total  1.163e-05    




 element     2:m4
       rd  6.647e-16    
       rs  1.064e-14    
       id    0.         
       rx  1.479e+08    
       fn  1.163e-05    
    total  1.163e-05    




 element     2:m5
       rd    0.         
       rs    0.         
       id    0.         
       rx  1.454e+07    
       fn  4.839e-08    
    total  4.839e-08    




 element     2:m6
       rd    0.         
       rs  1.844e-23    
       id    0.         
       rx  1.455e+07    
       fn  4.841e-08    
    total  4.841e-08    




 element     2:m7
       rd  1.813e-15    
       rs  2.163e-11    
       id    0.         
       rx  9.909e+09    
       fn  2.085e-03    
    total  2.085e-03    




 element     2:m8
       rd    0.         
       rs  2.163e-11    
       id    0.         
       rx  9.910e+09    
       fn  2.085e-03    
    total  2.085e-03    




 element     2:mc1
       rd  2.119e-23    
       rs  2.620e-18    
       id  2.755e-14    
       rx  2.103e+06    
       fn  6.470e-10    
    total  6.471e-10    




 element     2:mc2
       rd    0.         
       rs  3.042e-20    
       id    0.         
       rx  4.450e+05    
       fn  1.471e-11    
    total  1.471e-11    




 element     2:mc3
       rd    0.         
       rs  4.349e-19    
       id    0.         
       rx  1.658e+06    
       fn  2.141e-10    
    total  2.141e-10    




 **** total output noise voltage         = 6.133e-02       sq v/hz
                                         =   0.2477        v/rt hz
      transfer function value:
        v(vop)/vinp                      = 1.300e+04      
      equivalent input noise at vinp                          
                                         = 1.905e-05       /rt hz



 **** the results of the sqrt of integral (v**2 / freq)
      from fstart upto    0.5012       hz. using more freq points
      results in more accurate total noise values.

 **** total output noise voltage   =    0.2209        volts
 **** total equivalent input noise =  1.699e-05      



1****** HSPICE -- B-2008.09-SP1 32-BIT (Nov 24 2008) linux ******               
 ******  
 ***myop_2stage_aboveth

  ******  noise analysis tnom=  25.000 temp=  25.000 *****

     frequency =   0.6310       hz




 **** mosfet squared noise voltages (sq v/hz)




 element     0:mt
       rd    0.         
       rs    0.         
       id    0.         
       rx    0.         
       fn    0.         
    total    0.         




 element     1:mc0
       rd  4.751e-23    
       rs  6.906e-19    
       id  8.092e-16    
       rx  8.588e+04    
       fn  7.056e-10    
    total  7.056e-10    




 element     1:mc1
       rd  6.681e-24    
       rs  1.710e-19    
       id  1.769e-16    
       rx  1.931e+04    
       fn  1.756e-10    
    total  1.756e-10    




 element     1:mc2
       rd  1.223e-25    
       rs  8.422e-20    
       id  1.458e-16    
       rx  1.931e+04    
       fn  6.749e-12    
    total  6.750e-12    




 element     2:mn
       rd    0.         
       rs  1.926e-11    
       id    0.         
       rx  9.776e+09    
       fn  1.787e-03    
    total  1.787e-03    




 element     2:mp
       rd    0.         
       rs  1.926e-11    
       id    0.         
       rx  9.776e+09    
       fn  1.787e-03    
    total  1.787e-03    




 element     2:mb
       rd    0.         
       rs  1.174e-19    
       id    0.         
       rx  5.411e+05    
       fn  4.757e-11    
    total  4.757e-11    




 element     2:m1
       rd  6.400e-15    
       rs  1.078e-10    
       id  1.161e-06    
       rx  9.775e+09    
       fn  2.096e-02    
    total  2.097e-02    




 element     2:m2
       rd  2.844e-15    
       rs  1.078e-10    
       id  1.161e-06    
       rx  9.776e+09    
       fn  2.097e-02    
    total  2.097e-02    




 element     2:m3
       rd    0.         
       rs  1.064e-14    
       id    0.         
       rx  1.479e+08    
       fn  9.235e-06    
    total  9.235e-06    




 element     2:m4
       rd    0.         
       rs  1.064e-14    
       id    0.         
       rx  1.479e+08    
       fn  9.237e-06    
    total  9.237e-06    




 element     2:m5
       rd    0.         
       rs    0.         
       id    0.         
       rx  1.454e+07    
       fn  3.979e-08    
    total  3.979e-08    




 element     2:m6
       rd    0.         
       rs  1.844e-23    
       id    0.         
       rx  1.454e+07    
       fn  3.980e-08    
    total  3.980e-08    




 element     2:m7
       rd  1.813e-15    
       rs  2.163e-11    
       id    0.         
       rx  9.909e+09    
       fn  1.714e-03    
    total  1.714e-03    




 element     2:m8
       rd    0.         
       rs  2.163e-11    
       id    0.         
       rx  9.910e+09    
       fn  1.715e-03    
    total  1.715e-03    




 element     2:mc1
       rd  2.119e-23    
       rs  2.620e-18    
       id  2.755e-14    
       rx  2.103e+06    
       fn  5.140e-10    
    total  5.140e-10    




 element     2:mc2
       rd    0.         
       rs  3.042e-20    
       id    0.         
       rx  4.450e+05    
       fn  1.210e-11    
    total  1.210e-11    




 element     2:mc3
       rd    0.         
       rs  4.349e-19    
       id    0.         
       rx  1.658e+06    
       fn  1.761e-10    
    total  1.761e-10    




 **** total output noise voltage         = 4.896e-02       sq v/hz
                                         =   0.2213        v/rt hz
      transfer function value:
        v(vop)/vinp                      = 1.300e+04      
      equivalent input noise at vinp                          
                                         = 1.702e-05       /rt hz



 **** the results of the sqrt of integral (v**2 / freq)
      from fstart upto    0.6310       hz. using more freq points
      results in more accurate total noise values.

 **** total output noise voltage   =    0.2364        volts
 **** total equivalent input noise =  1.818e-05      



1****** HSPICE -- B-2008.09-SP1 32-BIT (Nov 24 2008) linux ******               
 ******  
 ***myop_2stage_aboveth

  ******  noise analysis tnom=  25.000 temp=  25.000 *****

     frequency =   0.7943       hz




 **** mosfet squared noise voltages (sq v/hz)




 element     0:mt
       rd    0.         
       rs    0.         
       id    0.         
       rx    0.         
       fn    0.         
    total    0.         




 element     1:mc0
       rd  4.751e-23    
       rs  6.906e-19    
       id  8.092e-16    
       rx  8.588e+04    
       fn  5.605e-10    
    total  5.605e-10    




 element     1:mc1
       rd  6.681e-24    
       rs  1.710e-19    
       id  1.769e-16    
       rx  1.931e+04    
       fn  1.395e-10    
    total  1.395e-10    




 element     1:mc2
       rd  1.223e-25    
       rs  8.422e-20    
       id  1.458e-16    
       rx  1.931e+04    
       fn  5.550e-12    
    total  5.550e-12    




 element     2:mn
       rd    0.         
       rs  1.926e-11    
       id    0.         
       rx  9.776e+09    
       fn  1.469e-03    
    total  1.469e-03    




 element     2:mp
       rd    0.         
       rs  1.926e-11    
       id    0.         
       rx  9.776e+09    
       fn  1.469e-03    
    total  1.469e-03    




 element     2:mb
       rd    0.         
       rs  1.174e-19    
       id    0.         
       rx  5.411e+05    
       fn  3.912e-11    
    total  3.912e-11    




 element     2:m1
       rd  6.400e-15    
       rs  1.078e-10    
       id  1.161e-06    
       rx  9.775e+09    
       fn  1.665e-02    
    total  1.665e-02    




 element     2:m2
       rd  2.844e-15    
       rs  1.078e-10    
       id  1.161e-06    
       rx  9.776e+09    
       fn  1.666e-02    
    total  1.666e-02    




 element     2:m3
       rd    0.         
       rs  1.064e-14    
       id    0.         
       rx  1.479e+08    
       fn  7.336e-06    
    total  7.336e-06    




 element     2:m4
       rd    0.         
       rs  1.064e-14    
       id    0.         
       rx  1.479e+08    
       fn  7.337e-06    
    total  7.337e-06    




 element     2:m5
       rd    0.         
       rs  1.237e-15    
       id    0.         
       rx  1.454e+07    
       fn  3.271e-08    
    total  3.271e-08    




 element     2:m6
       rd    0.         
       rs    0.         
       id    0.         
       rx  1.454e+07    
       fn  3.272e-08    
    total  3.272e-08    




 element     2:m7
       rd    0.         
       rs  2.163e-11    
       id    0.         
       rx  9.909e+09    
       fn  1.410e-03    
    total  1.410e-03    




 element     2:m8
       rd    0.         
       rs  2.163e-11    
       id    0.         
       rx  9.910e+09    
       fn  1.410e-03    
    total  1.410e-03    




 element     2:mc1
       rd  2.119e-23    
       rs  2.620e-18    
       id  2.755e-14    
       rx  2.103e+06    
       fn  4.082e-10    
    total  4.083e-10    




 element     2:mc2
       rd    0.         
       rs  3.042e-20    
       id    0.         
       rx  4.450e+05    
       fn  9.945e-12    
    total  9.945e-12    




 element     2:mc3
       rd    0.         
       rs  4.349e-19    
       id    0.         
       rx  1.658e+06    
       fn  1.448e-10    
    total  1.448e-10    




 **** total output noise voltage         = 3.908e-02       sq v/hz
                                         =   0.1977        v/rt hz
      transfer function value:
        v(vop)/vinp                      = 1.300e+04      
      equivalent input noise at vinp                          
                                         = 1.520e-05       /rt hz



 **** the results of the sqrt of integral (v**2 / freq)
      from fstart upto    0.7943       hz. using more freq points
      results in more accurate total noise values.

 **** total output noise voltage   =    0.2510        volts
 **** total equivalent input noise =  1.930e-05      



1****** HSPICE -- B-2008.09-SP1 32-BIT (Nov 24 2008) linux ******               
 ******  
 ***myop_2stage_aboveth

  ******  noise analysis tnom=  25.000 temp=  25.000 *****

     frequency =   1.0000       hz




 **** mosfet squared noise voltages (sq v/hz)




 element     0:mt
       rd    0.         
       rs    0.         
       id    0.         
       rx    0.         
       fn    0.         
    total    0.         




 element     1:mc0
       rd  4.751e-23    
       rs  6.906e-19    
       id  8.092e-16    
       rx  8.588e+04    
       fn  4.452e-10    
    total  4.452e-10    




 element     1:mc1
       rd  6.681e-24    
       rs  1.710e-19    
       id  1.769e-16    
       rx  1.931e+04    
       fn  1.108e-10    
    total  1.108e-10    




 element     1:mc2
       rd  1.223e-25    
       rs  8.423e-20    
       id  1.458e-16    
       rx  1.931e+04    
       fn  4.563e-12    
    total  4.563e-12    




 element     2:mn
       rd    0.         
       rs  1.926e-11    
       id    0.         
       rx  9.776e+09    
       fn  1.208e-03    
    total  1.208e-03    




 element     2:mp
       rd    0.         
       rs  1.926e-11    
       id    0.         
       rx  9.776e+09    
       fn  1.208e-03    
    total  1.208e-03    




 element     2:mb
       rd  4.416e-23    
       rs  1.174e-19    
       id    0.         
       rx  5.411e+05    
       fn  3.216e-11    
    total  3.216e-11    




 element     2:m1
       rd  6.400e-15    
       rs  1.078e-10    
       id  1.161e-06    
       rx  9.775e+09    
       fn  1.323e-02    
    total  1.323e-02    




 element     2:m2
       rd  6.400e-15    
       rs  1.078e-10    
       id  1.161e-06    
       rx  9.776e+09    
       fn  1.323e-02    
    total  1.323e-02    




 element     2:m3
       rd    0.         
       rs  5.982e-15    
       id    0.         
       rx  1.479e+08    
       fn  5.827e-06    
    total  5.827e-06    




 element     2:m4
       rd    0.         
       rs  1.064e-14    
       id    0.         
       rx  1.479e+08    
       fn  5.828e-06    
    total  5.828e-06    




 element     2:m5
       rd    0.         
       rs  1.237e-15    
       id    0.         
       rx  1.454e+07    
       fn  2.690e-08    
    total  2.690e-08    




 element     2:m6
       rd    0.         
       rs    0.         
       id    0.         
       rx  1.454e+07    
       fn  2.691e-08    
    total  2.691e-08    




 element     2:m7
       rd    0.         
       rs  2.163e-11    
       id    0.         
       rx  9.909e+09    
       fn  1.159e-03    
    total  1.159e-03    




 element     2:m8
       rd    0.         
       rs  2.163e-11    
       id    0.         
       rx  9.910e+09    
       fn  1.159e-03    
    total  1.159e-03    




 element     2:mc1
       rd  2.119e-23    
       rs  2.620e-18    
       id  2.755e-14    
       rx  2.103e+06    
       fn  3.243e-10    
    total  3.243e-10    




 element     2:mc2
       rd    0.         
       rs  2.714e-20    
       id    0.         
       rx  4.450e+05    
       fn  8.178e-12    
    total  8.178e-12    




 element     2:mc3
       rd  8.832e-23    
       rs  4.350e-19    
       id    0.         
       rx  1.658e+06    
       fn  1.190e-10    
    total  1.190e-10    




 **** total output noise voltage         = 3.121e-02       sq v/hz
                                         =   0.1767        v/rt hz
      transfer function value:
        v(vop)/vinp                      = 1.300e+04      
      equivalent input noise at vinp                          
                                         = 1.359e-05       /rt hz



 **** the results of the sqrt of integral (v**2 / freq)
      from fstart upto    1.0000       hz. using more freq points
      results in more accurate total noise values.

 **** total output noise voltage   =    0.2649        volts
 **** total equivalent input noise =  2.037e-05      



1****** HSPICE -- B-2008.09-SP1 32-BIT (Nov 24 2008) linux ******               
 ******  
 ***myop_2stage_aboveth

  ******  noise analysis tnom=  25.000 temp=  25.000 *****

     frequency =   1.2589       hz




 **** mosfet squared noise voltages (sq v/hz)




 element     0:mt
       rd    0.         
       rs    0.         
       id    0.         
       rx    0.         
       fn    0.         
    total    0.         




 element     1:mc0
       rd  4.751e-23    
       rs  6.906e-19    
       id  8.092e-16    
       rx  8.588e+04    
       fn  3.537e-10    
    total  3.537e-10    




 element     1:mc1
       rd  6.681e-24    
       rs  1.710e-19    
       id  1.769e-16    
       rx  1.931e+04    
       fn  8.799e-11    
    total  8.799e-11    




 element     1:mc2
       rd  1.223e-25    
       rs  8.423e-20    
       id  1.458e-16    
       rx  1.931e+04    
       fn  3.752e-12    
    total  3.752e-12    




 element     2:mn
       rd    0.         
       rs  1.926e-11    
       id    0.         
       rx  9.776e+09    
       fn  9.934e-04    
    total  9.934e-04    




 element     2:mp
       rd    0.         
       rs  1.926e-11    
       id    0.         
       rx  9.776e+09    
       fn  9.934e-04    
    total  9.934e-04    




 element     2:mb
       rd    0.         
       rs  1.174e-19    
       id    0.         
       rx  5.411e+05    
       fn  2.645e-11    
    total  2.645e-11    




 element     2:m1
       rd  2.844e-15    
       rs  1.078e-10    
       id  1.161e-06    
       rx  9.775e+09    
       fn  1.051e-02    
    total  1.051e-02    




 element     2:m2
       rd  6.400e-15    
       rs  1.078e-10    
       id  1.161e-06    
       rx  9.776e+09    
       fn  1.051e-02    
    total  1.051e-02    




 element     2:m3
       rd    0.         
       rs  1.064e-14    
       id    0.         
       rx  1.479e+08    
       fn  4.629e-06    
    total  4.629e-06    




 element     2:m4
       rd    0.         
       rs  5.982e-15    
       id    0.         
       rx  1.479e+08    
       fn  4.630e-06    
    total  4.630e-06    




 element     2:m5
       rd    0.         
       rs    0.         
       id    0.         
       rx  1.454e+07    
       fn  2.212e-08    
    total  2.212e-08    




 element     2:m6
       rd    0.         
       rs    0.         
       id    0.         
       rx  1.454e+07    
       fn  2.212e-08    
    total  2.212e-08    




 element     2:m7
       rd    0.         
       rs  2.163e-11    
       id    0.         
       rx  9.909e+09    
       fn  9.530e-04    
    total  9.530e-04    




 element     2:m8
       rd  1.813e-15    
       rs  2.163e-11    
       id    0.         
       rx  9.910e+09    
       fn  9.532e-04    
    total  9.532e-04    




 element     2:mc1
       rd  2.119e-23    
       rs  2.620e-18    
       id  2.755e-14    
       rx  2.103e+06    
       fn  2.576e-10    
    total  2.576e-10    




 element     2:mc2
       rd    0.         
       rs  3.042e-20    
       id    0.         
       rx  4.450e+05    
       fn  6.724e-12    
    total  6.724e-12    




 element     2:mc3
       rd  8.832e-23    
       rs  4.350e-19    
       id    0.         
       rx  1.658e+06    
       fn  9.788e-11    
    total  9.788e-11    




 **** total output noise voltage         = 2.492e-02       sq v/hz
                                         =   0.1579        v/rt hz
      transfer function value:
        v(vop)/vinp                      = 1.300e+04      
      equivalent input noise at vinp                          
                                         = 1.214e-05       /rt hz



 **** the results of the sqrt of integral (v**2 / freq)
      from fstart upto    1.2589       hz. using more freq points
      results in more accurate total noise values.

 **** total output noise voltage   =    0.2782        volts
 **** total equivalent input noise =  2.139e-05      



1****** HSPICE -- B-2008.09-SP1 32-BIT (Nov 24 2008) linux ******               
 ******  
 ***myop_2stage_aboveth

  ******  noise analysis tnom=  25.000 temp=  25.000 *****

     frequency =   1.5849       hz




 **** mosfet squared noise voltages (sq v/hz)




 element     0:mt
       rd    0.         
       rs    0.         
       id    0.         
       rx    0.         
       fn    0.         
    total    0.         




 element     1:mc0
       rd  4.751e-23    
       rs  6.906e-19    
       id  8.092e-16    
       rx  8.588e+04    
       fn  2.809e-10    
    total  2.809e-10    




 element     1:mc1
       rd  7.134e-24    
       rs  1.710e-19    
       id  1.769e-16    
       rx  1.931e+04    
       fn  6.990e-11    
    total  6.990e-11    




 element     1:mc2
       rd  1.223e-25    
       rs  8.423e-20    
       id  1.458e-16    
       rx  1.931e+04    
       fn  3.085e-12    
    total  3.085e-12    




 element     2:mn
       rd    0.         
       rs  1.926e-11    
       id    0.         
       rx  9.776e+09    
       fn  8.168e-04    
    total  8.168e-04    




 element     2:mp
       rd    0.         
       rs  1.926e-11    
       id    0.         
       rx  9.776e+09    
       fn  8.168e-04    
    total  8.168e-04    




 element     2:mb
       rd  1.685e-28    
       rs  1.174e-19    
       id    0.         
       rx  5.411e+05    
       fn  2.174e-11    
    total  2.174e-11    




 element     2:m1
       rd  6.400e-15    
       rs  1.078e-10    
       id  1.161e-06    
       rx  9.775e+09    
       fn  8.346e-03    
    total  8.347e-03    




 element     2:m2
       rd  2.844e-15    
       rs  1.078e-10    
       id  1.161e-06    
       rx  9.776e+09    
       fn  8.348e-03    
    total  8.349e-03    




 element     2:m3
       rd    0.         
       rs  1.064e-14    
       id    0.         
       rx  1.479e+08    
       fn  3.677e-06    
    total  3.677e-06    




 element     2:m4
       rd    0.         
       rs  1.064e-14    
       id    0.         
       rx  1.479e+08    
       fn  3.677e-06    
    total  3.677e-06    




 element     2:m5
       rd    0.         
       rs    0.         
       id    0.         
       rx  1.454e+07    
       fn  1.819e-08    
    total  1.819e-08    




 element     2:m6
       rd    0.         
       rs  7.374e-23    
       id    0.         
       rx  1.454e+07    
       fn  1.819e-08    
    total  1.819e-08    




 element     2:m7
       rd  1.813e-15    
       rs  2.163e-11    
       id    0.         
       rx  9.909e+09    
       fn  7.836e-04    
    total  7.836e-04    




 element     2:m8
       rd    0.         
       rs  2.163e-11    
       id    0.         
       rx  9.910e+09    
       fn  7.838e-04    
    total  7.838e-04    




 element     2:mc1
       rd  3.234e-28    
       rs  2.620e-18    
       id  2.755e-14    
       rx  2.103e+06    
       fn  2.046e-10    
    total  2.046e-10    




 element     2:mc2
       rd  1.433e-27    
       rs  3.042e-20    
       id    0.         
       rx  4.450e+05    
       fn  5.529e-12    
    total  5.529e-12    




 element     2:mc3
       rd    0.         
       rs  4.350e-19    
       id    0.         
       rx  1.658e+06    
       fn  8.048e-11    
    total  8.048e-11    




 **** total output noise voltage         = 1.990e-02       sq v/hz
                                         =   0.1411        v/rt hz
      transfer function value:
        v(vop)/vinp                      = 1.300e+04      
      equivalent input noise at vinp                          
                                         = 1.085e-05       /rt hz



 **** the results of the sqrt of integral (v**2 / freq)
      from fstart upto    1.5849       hz. using more freq points
      results in more accurate total noise values.

 **** total output noise voltage   =    0.2909        volts
 **** total equivalent input noise =  2.237e-05      



1****** HSPICE -- B-2008.09-SP1 32-BIT (Nov 24 2008) linux ******               
 ******  
 ***myop_2stage_aboveth

  ******  noise analysis tnom=  25.000 temp=  25.000 *****

     frequency =   1.9953       hz




 **** mosfet squared noise voltages (sq v/hz)




 element     0:mt
       rd    0.         
       rs    0.         
       id    0.         
       rx    0.         
       fn    0.         
    total    0.         




 element     1:mc0
       rd  4.751e-23    
       rs  6.906e-19    
       id  8.092e-16    
       rx  8.588e+04    
       fn  2.231e-10    
    total  2.231e-10    




 element     1:mc1
       rd  6.681e-24    
       rs  1.710e-19    
       id  1.769e-16    
       rx  1.931e+04    
       fn  5.552e-11    
    total  5.552e-11    




 element     1:mc2
       rd  1.223e-25    
       rs  8.423e-20    
       id  1.458e-16    
       rx  1.931e+04    
       fn  2.537e-12    
    total  2.537e-12    




 element     2:mn
       rd    0.         
       rs  1.926e-11    
       id    0.         
       rx  9.776e+09    
       fn  6.716e-04    
    total  6.716e-04    




 element     2:mp
       rd  3.625e-15    
       rs  1.926e-11    
       id    0.         
       rx  9.776e+09    
       fn  6.716e-04    
    total  6.716e-04    




 element     2:mb
       rd    0.         
       rs  1.174e-19    
       id    0.         
       rx  5.411e+05    
       fn  1.788e-11    
    total  1.788e-11    




 element     2:m1
       rd  2.844e-15    
       rs  1.078e-10    
       id  1.161e-06    
       rx  9.775e+09    
       fn  6.630e-03    
    total  6.631e-03    




 element     2:m2
       rd  6.400e-15    
       rs  1.078e-10    
       id  1.161e-06    
       rx  9.776e+09    
       fn  6.631e-03    
    total  6.632e-03    




 element     2:m3
       rd    0.         
       rs  1.064e-14    
       id    0.         
       rx  1.479e+08    
       fn  2.920e-06    
    total  2.920e-06    




 element     2:m4
       rd    0.         
       rs  5.982e-15    
       id    0.         
       rx  1.479e+08    
       fn  2.921e-06    
    total  2.921e-06    




 element     2:m5
       rd    0.         
       rs    0.         
       id    0.         
       rx  1.454e+07    
       fn  1.496e-08    
    total  1.496e-08    




 element     2:m6
       rd    0.         
       rs  1.237e-15    
       id    0.         
       rx  1.454e+07    
       fn  1.496e-08    
    total  1.496e-08    




 element     2:m7
       rd    0.         
       rs  2.163e-11    
       id    0.         
       rx  9.909e+09    
       fn  6.443e-04    
    total  6.443e-04    




 element     2:m8
       rd    0.         
       rs  2.163e-11    
       id    0.         
       rx  9.910e+09    
       fn  6.444e-04    
    total  6.444e-04    




 element     2:mc1
       rd  2.119e-23    
       rs  2.621e-18    
       id  2.755e-14    
       rx  2.103e+06    
       fn  1.625e-10    
    total  1.626e-10    




 element     2:mc2
       rd    0.         
       rs  2.714e-20    
       id    0.         
       rx  4.450e+05    
       fn  4.546e-12    
    total  4.546e-12    




 element     2:mc3
       rd  8.832e-23    
       rs  4.350e-19    
       id    0.         
       rx  1.658e+06    
       fn  6.618e-11    
    total  6.618e-11    




 **** total output noise voltage         = 1.590e-02       sq v/hz
                                         =   0.1261        v/rt hz
      transfer function value:
        v(vop)/vinp                      = 1.300e+04      
      equivalent input noise at vinp                          
                                         = 9.698e-06       /rt hz



 **** the results of the sqrt of integral (v**2 / freq)
      from fstart upto    1.9953       hz. using more freq points
      results in more accurate total noise values.

 **** total output noise voltage   =    0.3032        volts
 **** total equivalent input noise =  2.331e-05      



1****** HSPICE -- B-2008.09-SP1 32-BIT (Nov 24 2008) linux ******               
 ******  
 ***myop_2stage_aboveth

  ******  noise analysis tnom=  25.000 temp=  25.000 *****

     frequency =   2.5119       hz




 **** mosfet squared noise voltages (sq v/hz)




 element     0:mt
       rd    0.         
       rs    0.         
       id    0.         
       rx    0.         
       fn    0.         
    total    0.         




 element     1:mc0
       rd  4.751e-23    
       rs  6.906e-19    
       id  8.092e-16    
       rx  8.588e+04    
       fn  1.773e-10    
    total  1.773e-10    




 element     1:mc1
       rd  7.134e-24    
       rs  1.711e-19    
       id  1.769e-16    
       rx  1.931e+04    
       fn  4.410e-11    
    total  4.410e-11    




 element     1:mc2
       rd  1.223e-25    
       rs  8.423e-20    
       id  1.458e-16    
       rx  1.931e+04    
       fn  2.086e-12    
    total  2.086e-12    




 element     2:mn
       rd    0.         
       rs  1.926e-11    
       id    0.         
       rx  9.776e+09    
       fn  5.522e-04    
    total  5.522e-04    




 element     2:mp
       rd    0.         
       rs  1.926e-11    
       id    0.         
       rx  9.776e+09    
       fn  5.522e-04    
    total  5.522e-04    




 element     2:mb
       rd  6.738e-28    
       rs  1.174e-19    
       id    0.         
       rx  5.411e+05    
       fn  1.470e-11    
    total  1.470e-11    




 element     2:m1
       rd  2.844e-15    
       rs  1.078e-10    
       id  1.161e-06    
       rx  9.775e+09    
       fn  5.266e-03    
    total  5.267e-03    




 element     2:m2
       rd  2.844e-15    
       rs  1.078e-10    
       id  1.161e-06    
       rx  9.776e+09    
       fn  5.267e-03    
    total  5.268e-03    




 element     2:m3
       rd  6.647e-16    
       rs  1.064e-14    
       id    0.         
       rx  1.479e+08    
       fn  2.320e-06    
    total  2.320e-06    




 element     2:m4
       rd    0.         
       rs  1.064e-14    
       id    0.         
       rx  1.479e+08    
       fn  2.320e-06    
    total  2.320e-06    




 element     2:m5
       rd  1.237e-15    
       rs    0.         
       id    0.         
       rx  1.454e+07    
       fn  1.229e-08    
    total  1.229e-08    




 element     2:m6
       rd    0.         
       rs  1.237e-15    
       id    0.         
       rx  1.454e+07    
       fn  1.230e-08    
    total  1.230e-08    




 element     2:m7
       rd    0.         
       rs  2.163e-11    
       id    0.         
       rx  9.909e+09    
       fn  5.298e-04    
    total  5.298e-04    




 element     2:m8
       rd    0.         
       rs  2.163e-11    
       id    0.         
       rx  9.910e+09    
       fn  5.299e-04    
    total  5.299e-04    




 element     2:mc1
       rd  2.119e-23    
       rs  2.621e-18    
       id  2.755e-14    
       rx  2.103e+06    
       fn  1.291e-10    
    total  1.291e-10    




 element     2:mc2
       rd    0.         
       rs  3.042e-20    
       id    0.         
       rx  4.450e+05    
       fn  3.738e-12    
    total  3.738e-12    




 element     2:mc3
       rd    0.         
       rs  4.350e-19    
       id    0.         
       rx  1.658e+06    
       fn  5.441e-11    
    total  5.441e-11    




 **** total output noise voltage         = 1.270e-02       sq v/hz
                                         =   0.1127        v/rt hz
      transfer function value:
        v(vop)/vinp                      = 1.300e+04      
      equivalent input noise at vinp                          
                                         = 8.669e-06       /rt hz



 **** the results of the sqrt of integral (v**2 / freq)
      from fstart upto    2.5119       hz. using more freq points
      results in more accurate total noise values.

 **** total output noise voltage   =    0.3150        volts
 **** total equivalent input noise =  2.423e-05      



1****** HSPICE -- B-2008.09-SP1 32-BIT (Nov 24 2008) linux ******               
 ******  
 ***myop_2stage_aboveth

  ******  noise analysis tnom=  25.000 temp=  25.000 *****

     frequency =   3.1623       hz




 **** mosfet squared noise voltages (sq v/hz)




 element     0:mt
       rd    0.         
       rs    0.         
       id    0.         
       rx    0.         
       fn    0.         
    total    0.         




 element     1:mc0
       rd  4.751e-23    
       rs  6.906e-19    
       id  8.093e-16    
       rx  8.589e+04    
       fn  1.408e-10    
    total  1.408e-10    




 element     1:mc1
       rd  6.681e-24    
       rs  1.711e-19    
       id  1.769e-16    
       rx  1.931e+04    
       fn  3.503e-11    
    total  3.503e-11    




 element     1:mc2
       rd  1.223e-25    
       rs  8.423e-20    
       id  1.458e-16    
       rx  1.931e+04    
       fn  1.715e-12    
    total  1.715e-12    




 element     2:mn
       rd    0.         
       rs  1.926e-11    
       id    0.         
       rx  9.776e+09    
       fn  4.541e-04    
    total  4.541e-04    




 element     2:mp
       rd    0.         
       rs  1.926e-11    
       id    0.         
       rx  9.776e+09    
       fn  4.541e-04    
    total  4.541e-04    




 element     2:mb
       rd  4.416e-23    
       rs  1.174e-19    
       id    0.         
       rx  5.411e+05    
       fn  1.209e-11    
    total  1.209e-11    




 element     2:m1
       rd  2.844e-15    
       rs  1.078e-10    
       id  1.161e-06    
       rx  9.775e+09    
       fn  4.183e-03    
    total  4.184e-03    




 element     2:m2
       rd  6.400e-15    
       rs  1.078e-10    
       id  1.161e-06    
       rx  9.776e+09    
       fn  4.184e-03    
    total  4.185e-03    




 element     2:m3
       rd    0.         
       rs  1.064e-14    
       id    0.         
       rx  1.479e+08    
       fn  1.843e-06    
    total  1.843e-06    




 element     2:m4
       rd    0.         
       rs  5.982e-15    
       id    0.         
       rx  1.479e+08    
       fn  1.843e-06    
    total  1.843e-06    




 element     2:m5
       rd    0.         
       rs  2.950e-22    
       id    0.         
       rx  1.454e+07    
       fn  1.011e-08    
    total  1.011e-08    




 element     2:m6
       rd    0.         
       rs  1.237e-15    
       id    0.         
       rx  1.454e+07    
       fn  1.011e-08    
    total  1.011e-08    




 element     2:m7
       rd    0.         
       rs  2.163e-11    
       id    0.         
       rx  9.909e+09    
       fn  4.356e-04    
    total  4.356e-04    




 element     2:m8
       rd  4.322e-22    
       rs  2.163e-11    
       id    0.         
       rx  9.910e+09    
       fn  4.357e-04    
    total  4.357e-04    




 element     2:mc1
       rd  2.119e-23    
       rs  2.621e-18    
       id  2.755e-14    
       rx  2.103e+06    
       fn  1.026e-10    
    total  1.026e-10    




 element     2:mc2
       rd    0.         
       rs  2.714e-20    
       id    0.         
       rx  4.450e+05    
       fn  3.074e-12    
    total  3.074e-12    




 element     2:mc3
       rd  8.832e-23    
       rs  4.350e-19    
       id    0.         
       rx  1.658e+06    
[...]
       id    0.         
       rx  6.879e+04    
       fn  3.164e-21    
    total  7.521e-20    




 element     2:m5
       rd  2.003e-25    
       rs  1.487e-26    
       id    0.         
       rx   96.1348     
       fn  5.754e-26    
    total  2.727e-25    




 element     2:m6
       rd  8.136e-20    
       rs  8.933e-22    
       id    0.         
       rx  7.853e+04    
       fn  3.840e-20    
    total  1.207e-19    




 element     2:m7
       rd  1.017e-26    
       rs  5.345e-27    
       id    0.         
       rx   22.6670     
       fn  2.970e-28    
    total  1.581e-26    




 element     2:m8
       rd  6.098e-22    
       rs  6.824e-24    
       id    0.         
       rx  5.664e+03    
       fn  1.855e-23    
    total  6.352e-22    




 element     2:mc1
       rd  1.543e-25    
       rs  4.888e-24    
       id  6.864e-23    
       rx  104.9922     
       fn  2.029e-27    
    total  7.368e-23    




 element     2:mc2
       rd  1.848e-25    
       rs  2.262e-25    
       id    0.         
       rx    7.0920     
       fn  1.017e-28    
    total  4.111e-25    




 element     2:mc3
       rd  3.791e-25    
       rs  1.413e-26    
       id    0.         
       rx   98.0098     
       fn  2.036e-26    
    total  4.136e-25    




 **** total output noise voltage         = 1.924e-18       sq v/hz
                                         = 1.387e-09       v/rt hz
      transfer function value:
        v(vop)/vinp                      = 3.425e-02      
      equivalent input noise at vinp                          
                                         = 4.050e-08       /rt hz



 **** the results of the sqrt of integral (v**2 / freq)
      from fstart upto  3.981e+08      hz. using more freq points
      results in more accurate total noise values.

 **** total output noise voltage   =    0.6245        volts
 **** total equivalent input noise =  1.645e-03      



1****** HSPICE -- B-2008.09-SP1 32-BIT (Nov 24 2008) linux ******               
 ******  
 ***myop_2stage_aboveth

  ******  noise analysis tnom=  25.000 temp=  25.000 *****

     frequency = 5.011e+08      hz




 **** mosfet squared noise voltages (sq v/hz)




 element     0:mt
       rd    0.         
       rs    0.         
       id    0.         
       rx    0.         
       fn    0.         
    total    0.         




 element     1:mc0
       rd  4.064e-23    
       rs  2.942e-22    
       id  1.727e-19    
       rx  1.254e+03    
       fn  1.895e-22    
    total  1.732e-19    




 element     1:mc1
       rd  2.796e-24    
       rs  7.491e-22    
       id  6.476e-20    
       rx  369.5494     
       fn  8.094e-23    
    total  6.560e-20    




 element     1:mc2
       rd  2.785e-24    
       rs  5.346e-22    
       id  5.341e-20    
       rx  369.7371     
       fn  6.734e-23    
    total  5.402e-20    




 element     2:mn
       rd  1.393e-24    
       rs  3.623e-25    
       id    0.         
       rx  258.3644     
       fn  3.398e-26    
    total  1.789e-24    




 element     2:mp
       rd  2.300e-21    
       rs  8.463e-24    
       id    0.         
       rx  7.974e+03    
       fn  3.237e-23    
    total  2.341e-21    




 element     2:mb
       rd  1.629e-24    
       rs  1.181e-26    
       id    0.         
       rx   99.3671     
       fn  4.367e-26    
    total  1.684e-24    




 element     2:m1
       rd  2.833e-24    
       rs  7.361e-24    
       id  4.691e-22    
       rx  196.4977     
       fn  1.066e-26    
    total  4.793e-22    




 element     2:m2
       rd  4.979e-21    
       rs  4.428e-23    
       id  7.743e-19    
       rx  7.983e+03    
       fn  1.760e-23    
    total  7.793e-19    




 element     2:m3
       rd  2.755e-24    
       rs  6.262e-25    
       id    0.         
       rx  181.2079     
       fn  1.744e-26    
    total  3.398e-24    




 element     2:m4
       rd  7.011e-20    
       rs  1.212e-21    
       id    0.         
       rx  5.464e+04    
       fn  1.586e-21    
    total  7.291e-20    




 element     2:m5
       rd  1.214e-25    
       rs  1.389e-26    
       id    0.         
       rx   58.4239     
       fn  1.747e-26    
    total  1.527e-25    




 element     2:m6
       rd  8.138e-20    
       rs  5.650e-22    
       id    0.         
       rx  6.245e+04    
       fn  1.997e-20    
    total  1.019e-19    




 element     2:m7
       rd  9.489e-27    
       rs  3.336e-27    
       id    0.         
       rx   18.8690     
       fn  1.692e-28    
    total  1.299e-26    




 element     2:m8
       rd  3.856e-22    
       rs  2.700e-24    
       id    0.         
       rx  3.578e+03    
       fn  6.085e-24    
    total  3.944e-22    




 element     2:mc1
       rd  1.205e-25    
       rs  3.816e-24    
       id  3.383e-23    
       rx   73.7078     
       fn  7.944e-28    
    total  3.776e-23    




 element     2:mc2
       rd  1.858e-25    
       rs  1.943e-25    
       id    0.         
       rx    3.8431     
       fn    0.         
    total  3.802e-25    




 element     2:mc3
       rd  3.311e-25    
       rs  1.187e-26    
       id    0.         
       rx   72.8012     
       fn  9.236e-27    
    total  3.522e-25    




 **** total output noise voltage         = 1.250e-18       sq v/hz
                                         = 1.118e-09       v/rt hz
      transfer function value:
        v(vop)/vinp                      = 3.335e-02      
      equivalent input noise at vinp                          
                                         = 3.353e-08       /rt hz



 **** the results of the sqrt of integral (v**2 / freq)
      from fstart upto  5.011e+08      hz. using more freq points
      results in more accurate total noise values.

 **** total output noise voltage   =    0.6245        volts
 **** total equivalent input noise =  1.687e-03      



1****** HSPICE -- B-2008.09-SP1 32-BIT (Nov 24 2008) linux ******               
 ******  
 ***myop_2stage_aboveth

  ******  noise analysis tnom=  25.000 temp=  25.000 *****

     frequency = 6.309e+08      hz




 **** mosfet squared noise voltages (sq v/hz)




 element     0:mt
       rd    0.         
       rs    0.         
       id    0.         
       rx    0.         
       fn    0.         
    total    0.         




 element     1:mc0
       rd  4.132e-23    
       rs  2.439e-22    
       id  1.108e-19    
       rx  1.005e+03    
       fn  9.662e-23    
    total  1.112e-19    




 element     1:mc1
       rd  2.141e-24    
       rs  6.984e-22    
       id  3.650e-20    
       rx  277.4138     
       fn  3.623e-23    
    total  3.723e-20    




 element     1:mc2
       rd  2.486e-24    
       rs  4.674e-22    
       id  3.010e-20    
       rx  277.5720     
       fn  3.121e-23    
    total  3.060e-20    




 element     2:mn
       rd  1.420e-24    
       rs  2.232e-25    
       id    0.         
       rx  188.8729     
       fn  1.493e-26    
    total  1.658e-24    




 element     2:mp
       rd  2.295e-21    
       rs  5.327e-24    
       id    0.         
       rx  6.327e+03    
       fn  1.676e-23    
    total  2.317e-21    




 element     2:mb
       rd  1.030e-24    
       rs  1.198e-26    
       id    0.         
       rx   62.7641     
       fn  1.433e-26    
    total  1.057e-24    




 element     2:m1
       rd  2.907e-24    
       rs  6.068e-24    
       id  3.017e-22    
       rx  157.5846     
       fn  5.448e-27    
    total  3.107e-22    




 element     2:m2
       rd  4.968e-21    
       rs  2.919e-23    
       id  4.874e-19    
       rx  6.333e+03    
       fn  8.801e-24    
    total  4.924e-19    




 element     2:m3
       rd  2.769e-24    
       rs  6.533e-25    
       id    0.         
       rx  142.2519     
       fn  8.538e-27    
    total  3.430e-24    




 element     2:m4
       rd  7.009e-20    
       rs  7.744e-22    
       id    0.         
       rx  4.340e+04    
       fn  7.949e-22    
    total  7.166e-20    




 element     2:m5
       rd  7.645e-26    
       rs  1.314e-26    
       id    0.         
       rx   35.9863     
       fn  5.451e-27    
    total  9.505e-26    




 element     2:m6
       rd  8.140e-20    
       rs  3.570e-22    
       id    0.         
       rx  4.964e+04    
       fn  1.038e-20    
    total  9.213e-20    




 element     2:m7
       rd  8.971e-27    
       rs  2.166e-27    
       id    0.         
       rx   15.3053     
       fn    0.         
    total  1.123e-26    




 element     2:m8
       rd  2.437e-22    
       rs  1.062e-24    
       id    0.         
       rx  2.259e+03    
       fn  1.995e-24    
    total  2.467e-22    




 element     2:mc1
       rd  9.891e-26    
       rs  3.131e-24    
       id  1.751e-23    
       rx   53.0359     
       fn  3.267e-28    
    total  2.074e-23    




 element     2:mc2
       rd  1.901e-25    
       rs  1.727e-25    
       id    0.         
       rx    4.2962     
       fn    0.         
    total  3.628e-25    




 element     2:mc3
       rd  3.002e-25    
       rs  1.047e-26    
       id    0.         
       rx   55.0358     
       fn  4.340e-27    
    total  3.150e-25    




 **** total output noise voltage         = 8.381e-19       sq v/hz
                                         = 9.155e-10       v/rt hz
      transfer function value:
        v(vop)/vinp                      = 3.277e-02      
      equivalent input noise at vinp                          
                                         = 2.793e-08       /rt hz



 **** the results of the sqrt of integral (v**2 / freq)
      from fstart upto  6.309e+08      hz. using more freq points
      results in more accurate total noise values.

 **** total output noise voltage   =    0.6245        volts
 **** total equivalent input noise =  1.723e-03      



1****** HSPICE -- B-2008.09-SP1 32-BIT (Nov 24 2008) linux ******               
 ******  
 ***myop_2stage_aboveth

  ******  noise analysis tnom=  25.000 temp=  25.000 *****

     frequency = 7.943e+08      hz




 **** mosfet squared noise voltages (sq v/hz)




 element     0:mt
       rd    0.         
       rs    0.         
       id    0.         
       rx    0.         
       fn    0.         
    total    0.         




 element     1:mc0
       rd  4.176e-23    
       rs  2.113e-22    
       id  7.067e-20    
       rx  802.6353     
       fn  4.895e-23    
    total  7.097e-20    




 element     1:mc1
       rd  1.730e-24    
       rs  6.673e-22    
       id  2.127e-20    
       rx  211.7794     
       fn  1.677e-23    
    total  2.195e-20    




 element     1:mc2
       rd  2.295e-24    
       rs  4.258e-22    
       id  1.754e-20    
       rx  211.9103     
       fn  1.495e-23    
    total  1.799e-20    




 element     2:mn
       rd  1.437e-24    
       rs  1.390e-25    
       id    0.         
       rx  140.8860     
       fn  6.831e-27    
    total  1.583e-24    




 element     2:mp
       rd  2.291e-21    
       rs  3.357e-24    
       id    0.         
       rx  5.023e+03    
       fn  8.683e-24    
    total  2.303e-21    




 element     2:mb
       rd  6.520e-25    
       rs  1.297e-26    
       id    0.         
       rx   39.6780     
       fn  4.708e-27    
    total  6.696e-25    




 element     2:m1
       rd  2.953e-24    
       rs  5.257e-24    
       id  1.926e-22    
       rx  125.9124     
       fn  2.763e-27    
    total  2.008e-22    




 element     2:m2
       rd  4.960e-21    
       rs  1.977e-23    
       id  3.071e-19    
       rx  5.027e+03    
       fn  4.405e-24    
    total  3.121e-19    




 element     2:m3
       rd  2.783e-24    
       rs  6.707e-25    
       id    0.         
       rx  112.3892     
       fn  4.233e-27    
    total  3.457e-24    




 element     2:m4
       rd  7.007e-20    
       rs  4.980e-22    
       id    0.         
       rx  3.447e+04    
       fn  3.984e-22    
    total  7.097e-20    




 element     2:m5
       rd  4.997e-26    
       rs  1.261e-26    
       id    0.         
       rx   22.3936     
       fn  1.736e-27    
    total  6.432e-26    




 element     2:m6
       rd  8.141e-20    
       rs  2.255e-22    
       id    0.         
       rx  3.945e+04    
       fn  5.388e-21    
    total  8.702e-20    




 element     2:m7
       rd  8.606e-27    
       rs  1.471e-27    
       id    0.         
       rx   12.2761     
       fn    0.         
    total  1.013e-26    




 element     2:m8
       rd  1.539e-22    
       rs  4.145e-25    
       id    0.         
       rx  1.426e+03    
       fn  6.536e-25    
    total  1.550e-22    




 element     2:mc1
       rd  8.515e-26    
       rs  2.694e-24    
       id  9.511e-24    
       rx   39.0832     
       fn  1.409e-28    
    total  1.229e-23    




 element     2:mc2
       rd  1.937e-25    
       rs  1.590e-25    
       id    0.         
       rx    4.3918     
       fn    0.         
    total  3.527e-25    




 element     2:mc3
       rd  2.801e-25    
       rs  9.600e-27    
       id    0.         
       rx   42.2201     
       fn  2.100e-27    
    total  2.918e-25    




 **** total output noise voltage         = 5.837e-19       sq v/hz
                                         = 7.640e-10       v/rt hz
      transfer function value:
        v(vop)/vinp                      = 3.241e-02      
      equivalent input noise at vinp                          
                                         = 2.357e-08       /rt hz



 **** the results of the sqrt of integral (v**2 / freq)
      from fstart upto  7.943e+08      hz. using more freq points
      results in more accurate total noise values.

 **** total output noise voltage   =    0.6245        volts
 **** total equivalent input noise =  1.754e-03      



1****** HSPICE -- B-2008.09-SP1 32-BIT (Nov 24 2008) linux ******               
 ******  
 ***myop_2stage_aboveth

  ******  noise analysis tnom=  25.000 temp=  25.000 *****

     frequency = 9.999e+08      hz




 **** mosfet squared noise voltages (sq v/hz)




 element     0:mt
       rd    0.         
       rs    0.         
       id    0.         
       rx    0.         
       fn    0.         
    total    0.         




 element     1:mc0
       rd  4.206e-23    
       rs  1.903e-22    
       id  4.490e-20    
       rx  639.7447     
       fn  2.470e-23    
    total  4.515e-20    




 element     1:mc1
       rd  1.471e-24    
       rs  6.480e-22    
       id  1.272e-20    
       rx  163.7457     
       fn  7.964e-24    
    total  1.337e-20    




 element     1:mc2
       rd  2.175e-24    
       rs  3.999e-22    
       id  1.049e-20    
       rx  163.8525     
       fn  7.352e-24    
    total  1.090e-20    




 element     2:mn
       rd  1.447e-24    
       rs  8.744e-26    
       id    0.         
       rx  106.9625     
       fn  3.238e-27    
    total  1.538e-24    




 element     2:mp
       rd  2.290e-21    
       rs  2.117e-24    
       id    0.         
       rx  3.988e+03    
       fn  4.501e-24    
    total  2.296e-21    




 element     2:mb
       rd  4.126e-25    
       rs  1.396e-26    
       id    0.         
       rx   25.1133     
       fn  1.551e-27    
    total  4.281e-25    




 element     2:m1
       rd  2.983e-24    
       rs  4.747e-24    
       id  1.224e-22    
       rx  100.3813     
       fn  1.395e-27    
    total  1.302e-22    




 element     2:m2
       rd  4.956e-21    
       rs  1.387e-23    
       id  1.936e-19    
       rx  3.991e+03    
       fn  2.206e-24    
    total  1.986e-19    




 element     2:m3
       rd  2.794e-24    
       rs  6.816e-25    
       id    0.         
       rx   89.0490     
       fn  2.111e-27    
    total  3.477e-24    




 element     2:m4
       rd  7.007e-20    
       rs  3.241e-22    
       id    0.         
       rx  2.738e+04    
       fn  1.997e-22    
    total  7.059e-20    




 element     2:m5
       rd  3.403e-26    
       rs  1.225e-26    
       id    0.         
       rx   14.0484     
       fn  5.616e-28    
    total  4.684e-26    




 element     2:m6
       rd  8.141e-20    
       rs  1.423e-22    
       id    0.         
       rx  3.135e+04    
       fn  2.797e-21    
    total  8.435e-20    




 element     2:m7
       rd  8.361e-27    
       rs  1.052e-27    
       id    0.         
       rx    9.7972     
       fn    0.         
    total  9.437e-27    




 element     2:m8
       rd  9.716e-23    
       rs  1.596e-25    
       id    0.         
       rx  900.1251     
       fn  2.141e-25    
    total  9.753e-23    




 element     2:mc1
       rd  7.639e-26    
       rs  2.417e-24    
       id  5.384e-24    
       rx   29.4061     
       fn    0.         
    total  7.877e-24    




 element     2:mc2
       rd  1.966e-25    
       rs  1.503e-25    
       id    0.         
       rx    4.0273     
       fn    0.         
    total  3.469e-25    




 element     2:mc3
       rd  2.670e-25    
       rs  9.057e-27    
       id    0.         
       rx   32.7522     
       fn  1.039e-27    
    total  2.770e-25    




 **** total output noise voltage         = 4.255e-19       sq v/hz
                                         = 6.523e-10       v/rt hz
      transfer function value:
        v(vop)/vinp                      = 3.218e-02      
      equivalent input noise at vinp                          
                                         = 2.027e-08       /rt hz



 **** the results of the sqrt of integral (v**2 / freq)
      from fstart upto  9.999e+08      hz. using more freq points
      results in more accurate total noise values.

 **** total output noise voltage   =    0.6245        volts
 **** total equivalent input noise =  1.781e-03      



 ******  
 ***myop_2stage_aboveth

  ******  ac analysis tnom=  25.000 temp=  25.000 *****
   gain1st=    failed    from= -1.2346E-29     to=  0.0000E+00

          ***** job concluded
1****** HSPICE -- B-2008.09-SP1 32-BIT (Nov 24 2008) linux ******               
 ******  
 ***myop_2stage_aboveth

  ******  job statistics summary tnom=  25.000 temp=  25.000 *****

  ******  HSPICE Threads Information  ******
  Command Line Threads Count:                      0
  Available CPU Count:                             8
  Actual Model Evaluation(Load) Threads Count:     1
  Actual Solver Threads Count:                     1


  ******  Circuit Statistics  ******
  # nodes       =      60  # elements   =      34
  # resistors   =       4  # capacitors =       0  # inductors   =       0
  # mutual_inds =       0  # vccs       =       0  # vcvs        =       0
  # cccs        =       0  # ccvs       =       0  # volt_srcs   =      10
  # curr_srcs   =       2  # diodes     =       0  # bjts        =       0
  # jfets       =       0  # mosfets    =      18  # U elements  =       0
  # T elements  =       0  # W elements =       0  # B elements  =       0
  # S elements  =       0  # P elements =       0  # va device   =       0


  ******  Runtime Statistics (seconds)  ******

  analysis           time    # points   tot. iter  conv.iter
  op point           0.01           1         152
  dc sweep           0.51        2001        4411
  ac analysis        0.39       10001       10001
  readin             0.03
  errchk             0.01
  setup              0.00
  output             0.00


           total memory used          702  kbytes
           total cpu time            0.95 seconds
           total elapsed time        1.21 seconds
           job started at     18:35:08 04/05/2016
           job ended   at     18:35:09 04/05/2016


 Init: hspice initialization file: /usr/cad/synopsys/hspice/cur/hspice/hspice.ini
 lic: Release hspice token(s) 
