$DATA1 SOURCE='HSPICE' VERSION='B-2008.09 32-BIT'
.TITLE '***myop_2stage_aboveth'
 gain1st          temper           alter#            
    failed          25.0000           1.0000         
