Using: /usr/bin/time -p /usr/cad/synopsys/hspice/cur/hspice/linux/hspice twoStageOP.sp
 ****** HSPICE -- B-2008.09-SP1 32-BIT (Nov 24 2008) linux ******               
  Copyright (C) 2008 Synopsys, Inc. All Rights Reserved.                        
  Unpublished-rights reserved under US copyright laws.
  This program is protected by law and is subject to the 
  terms and conditions of the license agreement from Synopsys.
  Use of this program is your acceptance to be bound by the 
  license agreement. HSPICE is the trademark of Synopsys, Inc.
  Input File: twoStageOP.sp                                                     
 lic:  
 lic: FLEXlm: v8.5b 
 lic: USER:   m103061608           HOSTNAME: ws45 
 lic: HOSTID: e41f13edf052         PID:      11020 
 lic: Using FLEXlm license file: 
 lic: 26585@lsnctu 
 lic: Checkout 1 hspice 
 lic: License/Maintenance for hspice will expire on 14-may-2016/2015.06 
 lic: FLOATING license(s) on SERVER lsnctu 
 lic:   
 Init: read install configuration file: /usr/cad/synopsys/hspice/cur/hspice/meta.cfg
 Init: hspice initialization file: /usr/cad/synopsys/hspice/cur/hspice/hspice.ini
 .option runlvl
 .option post acout=0 accurate=1 dcon=1 converge=1 gmindc=1.0000e-12 captab=1 unwrap=1
 + ingold=1

 ***param***
 .param
 +comon		= 1.7
 +bias		= 2.4
 +bias2		= 0.45
 +supplyp	= 3.3
 +supplyn	= 0
 +diff			= 0
 ***netlist***
 ***1st stage***
 mb	b	cz	 vdd vdd pch w = 12u  l = 5u  m = 1
 m1	1	vinp b	 b	 pch w = 6u   l = 5u  m = 1
 m2	2	vinn b	 b	 pch w = 6u   l = 5u  m = 1
 m3	1	1	 vss vss nch w = 3u   l = 5u  m = 1
 m4	2	1	 vss vss nch w = 3u l = 5u    m = 1


 ***2nd stage***

 ***compensation***

 ******

 ***current mirror***
 iin cp vss dc = 200n
 mc0 cp cp vdd vdd pch w = 16u l = 1u m = 2
 mc1 c0 cp vdd vdd pch w = 5u l = 0.4u m = 2
 mc2 cn cn c0  c0  pch w = 1u l = 0.4u m = 1
 mc3 cn cn vss vss nch w = 5.1u l = 0.4u m = 3
 mcx  cz cz vdd vdd pch w = 1u l = 1u m = 1
 mcz  cz cn vss vss nch w = 10u l = 1u m = 3

 ***source***
 vd		vdd 	gnd dc supplyp
 vs		vss 	gnd dc supplyn
 vb 		b0		gnd dc bias
 vb1		b1		gnd dc bias2


 ***input***
 vinp vinp gnd dc = 'comon-diff' ac = 1
 vinn vinn gnd dc = 'comon+diff' *ac = 1 180

 ***test***
 mt	vgt	vgt	vss	vss	nch	w = 3u   l = 5u m = 1
 *mt	vdt	vgt	vst	vst	pch w = 2.8u l = 2u m = 1
 *mt	vdt	vgt	vst	vst	pch	w = 12u   l = 5u m = 1
 vtd	vdt	gnd dc = 2.9
 vtg	vgt	gnd dc = 0.65
 vts vst gnd dc = 3.3


 ***open loop wi loading test***


 ***cloase loop feedback test***



 ****mos resistor***




 .op

 ***sweep***
 .dc diff -0.5 0.5 0.01

 ***probe&measuring***
 .ac dec 1000 0.1 1g
 *.tf v(voa) vinp
 *.pz v(2) vinp
 .probe dc i(m1) i(m2)	i(mt)
 .probe ac cap(von)
 +gain1st=par('vdb(2)-vdb(vinp,vinn)')	par('i(m1)-i(m2)')	phase1st=par('vp(2)')
 *+gainall=par('vdb(vop)-vdb(vinp,vinn)')		phaseall=par('vp(vop)')
 *.meas ac gain max par('vdb(vop)-vdb(vinp,vinn)')
 .meas ac gain1st max par('vdb(2, 1)-vdb(vinp,vinn)')
 *.meas ac zerodb when par('vdb(vop)-vdb(vinp,vinn)') = 0
 *.meas ac phaseatdb	find par('vp(vop)') when par('vdb(vop)-vdb(vinp,vinn)') = 0

 .noise v(2) vinp 100

 *.alter
 *.protect
 *.lib 'mm0355v.l' ff
 *.unprotect
 *.alter
 *.protect
 *.lib 'mm0355v.l' ss
 *.unprotect

 .end


 **warning**  the accurate option increases  the cpu time but the results
                are more accurate.
 ***accurate option sets default value of the options: 
 lvltim= 4         dvdt= 3       relvar= 200.00m absvar= 200.00m
     ft= 200.00m relmos=  10.00m
 (used for FFT control ) fft_accurate= 1
 

 **warning**  attempt to reference undefined node     0:von             
  in the definition of cap(von,0)
   branch - output ignored

 

 **warning** the following singular supplies were terminated to 1 meg resistor 
   supply       node1            node2
  vb                      0:b0               defined in subckt 0                     0:0                defined in subckt 0               
  vb1                     0:b1               defined in subckt 0                     0:0                defined in subckt 0               
  vtd                     0:vdt              defined in subckt 0                     0:0                defined in subckt 0               
  vts                     0:vst              defined in subckt 0                     0:0                defined in subckt 0               
      
  *** initial damped pseudo transient completed. ***
  *** final try started ***
1****** HSPICE -- B-2008.09-SP1 32-BIT (Nov 24 2008) linux ******               
 ******  
 ***myop_2stage_aboveth

  ******  operating point information tnom=  25.000 temp=  25.000 *****
 ***** operating point status is all       simulation time is     0.     
    node    =voltage      node    =voltage      node    =voltage

 +0:1       =   0.6741  0:2       =   0.6741  0:b       =   2.6123 
 +0:b0      =   2.4000  0:b1      =   0.4500  0:c0      =   1.2281 
 +0:cn      =   0.4510  0:cp      =   2.6993  0:cz      =   2.3918 
 +0:vdd     =   3.3000  0:vdt     =   2.9000  0:vgt     =   0.6500 
 +0:vinn    =   1.7000  0:vinp    =   1.7000  0:vss     =   0.     
 +0:vst     =   3.3000 


 maximum nodal capacitance=   5.460E-13         on node     0:vdd             

    nodal  capacitance table 

    node    =    cap      node    =    cap      node    =    cap

 +0:1       = 1.123e-13 0:2       = 1.064e-14 0:b       = 3.401e-13
 +0:b0      =   0.      0:b1      =   0.      0:c0      = 1.797e-14
 +0:cn      = 7.946e-14 0:cp      = 8.862e-14 0:cz      = 2.269e-13
 +0:vdd     = 5.460e-13 0:vdt     =   0.      0:vgt     = 5.362e-14
 +0:vinn    = 9.614e-14 0:vinp    = 9.614e-14 0:vss     = 4.625e-13
 +0:vst     =   0.     

 

 ****  voltage sources

 subckt                                                                    
 element  0:vd       0:vs       0:vb       0:vb1      0:vinp     0:vinn    
  volts      3.3000     0.         2.4000     0.4500     1.7000     1.7000 
  current -3.930e-06  4.961e-06 -2.400e-06 -4.500e-07    0.         0.     
  power    1.297e-05    0.       5.760e-06  2.025e-07    0.         0.     

 subckt                                   
 element  0:vtd      0:vtg      0:vts     
  volts      2.9000     0.6500     3.3000 
  current -2.900e-06 -1.031e-06 -3.300e-06
  power    8.410e-06  6.699e-07  1.089e-05

     total voltage source power dissipation=  3.890e-05       watts



 ***** current sources

 subckt             
 element  0:iin     
  volts      2.6993 
  current  2.000e-07
  power   -5.399e-07


     total current source power dissipation=-5.399e-07       watts


 **** mosfets


 subckt                                                                    
 element  0:mb       0:m1       0:m2       0:m3       0:m4       0:mc0     
 model    0:pch.1    0:pch.1    0:pch.1    0:nch.1    0:nch.1    0:pch.2   
 region     Saturati   Saturati   Saturati   Saturati   Saturati     Cutoff
  id      -2.722e-06 -1.361e-06 -1.361e-06  1.361e-06  1.361e-06 -2.000e-07
  ibs      5.383e-19  2.721e-19  2.721e-19 -2.342e-18 -2.342e-18  3.946e-20
  ibd      1.106e-15  1.223e-13  1.223e-13 -4.644e-15 -4.644e-15  2.932e-15
  vgs       -0.9082    -0.9123    -0.9123     0.6741     0.6741    -0.6007 
  vds       -0.6877    -1.9381    -1.9381     0.6741     0.6741    -0.6007 
  vbs        0.         0.         0.         0.         0.         0.     
  vth       -0.7448    -0.7476    -0.7476     0.5345     0.5345    -0.7542 
  vdsat     -0.2015    -0.2016    -0.2016     0.1613     0.1613  -5.250e-02
  vod       -0.1635    -0.1647    -0.1647     0.1397     0.1397     0.1534 
  beta     1.577e-04  7.756e-05  7.756e-05  1.166e-04  1.166e-04  1.891e-03
  gam eff    0.4181     0.4121     0.4121     0.4547     0.4547     0.3953 
  gm       2.543e-05  1.265e-05  1.265e-05  1.486e-05  1.486e-05  4.356e-06
  gds      7.834e-08  2.735e-08  2.735e-08  2.102e-08  2.102e-08  3.944e-08
  gmb      6.014e-06  2.973e-06  2.973e-06  4.380e-06  4.380e-06  9.940e-07
  cdtot    1.606e-14  6.530e-15  6.530e-15  4.114e-15  4.114e-15  4.341e-14
  cgtot    1.895e-13  9.614e-14  9.614e-14  5.083e-14  5.083e-14  3.819e-14
  cstot    2.306e-13  1.159e-13  1.159e-13  6.041e-14  6.041e-14  5.371e-14
  cbtot    9.260e-14  4.614e-14  4.614e-14  2.725e-14  2.725e-14  1.118e-13
  cgs      1.663e-13  8.344e-14  8.344e-14  4.244e-14  4.244e-14  5.874e-15
  cgd      2.205e-15  1.107e-15  1.107e-15  6.333e-16  6.333e-16  5.874e-15



 subckt                                                                    
 element  0:mc1      0:mc2      0:mc3      0:mcx      0:mcz      0:mt      
 model    0:pch.3    0:pch.6    0:nch.3    0:pch.5    0:nch.2    0:nch.1   
 region       Cutoff   Saturati     Cutoff   Saturati     Cutoff   Saturati
  id      -3.856e-07 -3.856e-07  3.856e-07 -6.232e-07  6.226e-07  1.031e-06
  ibs      7.745e-20  8.444e-20 -6.154e-19  1.365e-19 -9.372e-19 -1.774e-18
  ibd      2.527e-12  1.159e-16 -2.153e-14  1.160e-16 -5.675e-10 -4.644e-15
  vgs       -0.6007    -0.7771     0.4510    -0.9082     0.4510     0.6500 
  vds       -2.0719    -0.7771     0.4510    -0.9082     2.3918     0.6500 
  vbs        0.         0.         0.         0.         0.         0.     
  vth       -0.6799    -0.7453     0.5699    -0.7777     0.5636     0.5345 
  vdsat   -5.387e-02   -0.1032   4.416e-02   -0.1766   4.471e-02    0.1435 
  vod      7.924e-02 -3.181e-02   -0.1189    -0.1305    -0.1126     0.1155 
  beta     1.252e-03  1.063e-04  8.618e-03  4.823e-05  6.708e-03  1.168e-04
  gam eff    0.4553     0.4082     0.5577     0.3889     0.4720     0.4547 
  gm       8.478e-06  5.705e-06  1.010e-05  6.636e-06  1.564e-05  1.246e-05
  gds      2.394e-07  1.672e-07  1.665e-07  6.281e-08  8.596e-08  1.745e-08
  gmb      1.857e-06  1.204e-06  2.903e-06  1.438e-06  4.707e-06  3.683e-06
  cdtot    1.084e-14  1.894e-15  2.054e-14  1.834e-15  3.189e-14  4.128e-15
  cgtot    7.021e-15  9.940e-16  1.269e-14  3.695e-15  4.334e-14  4.949e-14
  cstot    1.792e-14  2.737e-15  2.275e-14  5.705e-15  4.284e-14  5.813e-14
  cbtot    2.839e-14  4.395e-15  4.318e-14  5.203e-15  9.314e-14  2.717e-14
  cgs      1.848e-15  4.182e-16  3.200e-15  2.774e-15  6.232e-15  4.070e-14
  cgd      1.848e-15  1.922e-16  3.200e-15  1.922e-16  6.232e-15  6.333e-16



1****** HSPICE -- B-2008.09-SP1 32-BIT (Nov 24 2008) linux ******               
 ******  
 ***myop_2stage_aboveth

  ******  noise analysis tnom=  25.000 temp=  25.000 *****

     frequency =   0.1000       hz




 **** mosfet squared noise voltages (sq v/hz)




 element     0:mb
       rd  4.920e-25    
       rs  8.440e-20    
       id  3.175e-16    
       rx  3.349e+04    
       fn  9.536e-11    
    total  9.536e-11    




 element     0:m1
       rd  6.528e-20    
       rs  1.563e-14    
       id  5.984e-11    
       rx  2.066e+07    
       fn  1.787e-05    
    total  1.787e-05    




 element     0:m2
       rd  2.901e-20    
       rs  1.563e-14    
       id  5.985e-11    
       rx  2.066e+07    
       fn  1.787e-05    
    total  1.787e-05    




 element     0:m3
       rd  2.766e-20    
       rs  2.475e-14    
       id  7.604e-11    
       rx  2.062e+07    
       fn  9.505e-06    
    total  9.505e-06    




 element     0:m4
       rd  2.766e-20    
       rs  2.491e-14    
       id  7.654e-11    
       rx  2.069e+07    
       fn  9.567e-06    
    total  9.567e-06    




 element     0:mc0
       rd  9.300e-24    
       rs  9.956e-20    
       id    0.         
       rx  3.469e+05    
       fn  5.973e-10    
    total  5.973e-10    




 element     0:mc1
       rd  1.668e-22    
       rs  3.231e-19    
       id    0.         
       rx  1.799e+05    
       fn  5.447e-09    
    total  5.447e-09    




 element     0:mc2
       rd  1.324e-24    
       rs  2.146e-21    
       id  1.996e-18    
       rx  7.336e+03    
       fn  3.945e-11    
    total  3.945e-11    




 element     0:mc3
       rd  3.376e-23    
       rs  1.908e-19    
       id    0.         
       rx  1.872e+05    
       fn  1.014e-09    
    total  1.014e-09    




 element     0:mcx
       rd  4.969e-23    
       rs  8.340e-19    
       id  1.088e-15    
       rx  1.255e+05    
       fn  5.545e-09    
    total  5.545e-09    




 element     0:mcz
       rd  1.020e-24    
       rs  1.070e-19    
       id    0.         
       rx  1.255e+05    
       fn  2.067e-10    
    total  2.067e-10    




 element     0:mt
       rd    0.         
       rs    0.         
       id    0.         
       rx    0.         
       fn    0.         
    total    0.         




 **** total output noise voltage         = 5.482e-05       sq v/hz
                                         = 7.404e-03       v/rt hz
      transfer function value:
        v(2)/vinp                        = 261.3070       
      equivalent input noise at vinp                          
                                         = 2.833e-05       /rt hz



 **** the results of the sqrt of integral (v**2 / freq)
      from fstart upto    0.1000       hz. using more freq points
      results in more accurate total noise values.

 **** total output noise voltage   =    0.            volts
 **** total equivalent input noise =    0.           



1****** HSPICE -- B-2008.09-SP1 32-BIT (Nov 24 2008) linux ******               
 ******  
 ***myop_2stage_aboveth

  ******  noise analysis tnom=  25.000 temp=  25.000 *****

     frequency =   0.1259       hz




 **** mosfet squared noise voltages (sq v/hz)




 element     0:mb
       rd  4.920e-25    
       rs  8.440e-20    
       id  3.175e-16    
       rx  3.349e+04    
       fn  7.574e-11    
    total  7.574e-11    




 element     0:m1
       rd  6.528e-20    
       rs  1.563e-14    
       id  5.984e-11    
       rx  2.066e+07    
       fn  1.419e-05    
    total  1.419e-05    




 element     0:m2
       rd  2.901e-20    
       rs  1.563e-14    
       id  5.985e-11    
       rx  2.066e+07    
       fn  1.419e-05    
    total  1.419e-05    




 element     0:m3
       rd  2.766e-20    
       rs  2.475e-14    
       id  7.604e-11    
       rx  2.062e+07    
       fn  7.816e-06    
    total  7.816e-06    




 element     0:m4
       rd  2.766e-20    
       rs  2.491e-14    
       id  7.654e-11    
       rx  2.069e+07    
       fn  7.867e-06    
    total  7.867e-06    




 element     0:mc0
       rd  9.300e-24    
       rs  9.956e-20    
       id    0.         
       rx  3.469e+05    
       fn  4.745e-10    
    total  4.745e-10    




 element     0:mc1
       rd  1.668e-22    
       rs  3.231e-19    
       id    0.         
       rx  1.799e+05    
       fn  4.327e-09    
    total  4.327e-09    




 element     0:mc2
       rd  1.324e-24    
       rs  2.146e-21    
       id  1.996e-18    
       rx  7.336e+03    
       fn  3.134e-11    
    total  3.134e-11    




 element     0:mc3
       rd  3.376e-23    
       rs  1.908e-19    
       id    0.         
       rx  1.872e+05    
       fn  8.334e-10    
    total  8.334e-10    




 element     0:mcx
       rd  4.969e-23    
       rs  8.340e-19    
       id  1.088e-15    
       rx  1.255e+05    
       fn  4.405e-09    
    total  4.405e-09    




 element     0:mcz
       rd  1.020e-24    
       rs  1.070e-19    
       id    0.         
       rx  1.255e+05    
       fn  1.700e-10    
    total  1.700e-10    




 element     0:mt
       rd    0.         
       rs    0.         
       id    0.         
       rx    0.         
       fn    0.         
    total    0.         




 **** total output noise voltage         = 4.408e-05       sq v/hz
                                         = 6.639e-03       v/rt hz
      transfer function value:
        v(2)/vinp                        = 261.3070       
      equivalent input noise at vinp                          
                                         = 2.541e-05       /rt hz



 **** the results of the sqrt of integral (v**2 / freq)
      from fstart upto    0.1259       hz. using more freq points
      results in more accurate total noise values.

 **** total output noise voltage   =  1.127e-03       volts
 **** total equivalent input noise =  4.313e-06      



1****** HSPICE -- B-2008.09-SP1 32-BIT (Nov 24 2008) linux ******               
 ******  
 ***myop_2stage_aboveth

  ******  noise analysis tnom=  25.000 temp=  25.000 *****

     frequency =   0.1585       hz




 **** mosfet squared noise voltages (sq v/hz)




 element     0:mb
       rd  4.920e-25    
       rs  8.440e-20    
       id  3.175e-16    
       rx  3.349e+04    
       fn  6.017e-11    
    total  6.017e-11    




 element     0:m1
       rd  6.528e-20    
       rs  1.563e-14    
       id  5.984e-11    
       rx  2.066e+07    
       fn  1.127e-05    
    total  1.127e-05    




 element     0:m2
       rd  2.901e-20    
       rs  1.563e-14    
       id  5.985e-11    
       rx  2.066e+07    
       fn  1.127e-05    
    total  1.127e-05    




 element     0:m3
       rd  2.766e-20    
       rs  2.475e-14    
       id  7.604e-11    
       rx  2.062e+07    
       fn  6.426e-06    
    total  6.426e-06    




 element     0:m4
       rd  2.766e-20    
       rs  2.491e-14    
       id  7.654e-11    
       rx  2.069e+07    
       fn  6.468e-06    
    total  6.468e-06    




 element     0:mc0
       rd  9.300e-24    
       rs  9.956e-20    
       id    0.         
       rx  3.469e+05    
       fn  3.769e-10    
    total  3.769e-10    




 element     0:mc1
       rd  1.668e-22    
       rs  3.231e-19    
       id    0.         
       rx  1.799e+05    
       fn  3.437e-09    
    total  3.437e-09    




 element     0:mc2
       rd  1.324e-24    
       rs  2.146e-21    
       id  1.996e-18    
       rx  7.336e+03    
       fn  2.489e-11    
    total  2.489e-11    




 element     0:mc3
       rd  3.376e-23    
       rs  1.908e-19    
       id    0.         
       rx  1.872e+05    
       fn  6.853e-10    
    total  6.853e-10    




 element     0:mcx
       rd  4.969e-23    
       rs  8.340e-19    
       id  1.088e-15    
       rx  1.255e+05    
       fn  3.499e-09    
    total  3.499e-09    




 element     0:mcz
       rd  1.020e-24    
       rs  1.070e-19    
       id    0.         
       rx  1.255e+05    
       fn  1.397e-10    
    total  1.397e-10    




 element     0:mt
       rd    0.         
       rs    0.         
       id    0.         
       rx    0.         
       fn    0.         
    total    0.         




 **** total output noise voltage         = 3.545e-05       sq v/hz
                                         = 5.954e-03       v/rt hz
      transfer function value:
        v(2)/vinp                        = 261.3070       
      equivalent input noise at vinp                          
                                         = 2.279e-05       /rt hz



 **** the results of the sqrt of integral (v**2 / freq)
      from fstart upto    0.1585       hz. using more freq points
      results in more accurate total noise values.

 **** total output noise voltage   =  1.599e-03       volts
 **** total equivalent input noise =  6.118e-06      



1****** HSPICE -- B-2008.09-SP1 32-BIT (Nov 24 2008) linux ******               
 ******  
 ***myop_2stage_aboveth

  ******  noise analysis tnom=  25.000 temp=  25.000 *****

     frequency =   0.1995       hz




 **** mosfet squared noise voltages (sq v/hz)




 element     0:mb
       rd  4.920e-25    
       rs  8.440e-20    
       id  3.175e-16    
       rx  3.349e+04    
       fn  4.779e-11    
    total  4.779e-11    




 element     0:m1
       rd  6.528e-20    
       rs  1.563e-14    
       id  5.984e-11    
       rx  2.066e+07    
       fn  8.955e-06    
    total  8.955e-06    




 element     0:m2
       rd  2.901e-20    
       rs  1.563e-14    
       id  5.985e-11    
       rx  2.066e+07    
       fn  8.955e-06    
    total  8.955e-06    




 element     0:m3
       rd  2.766e-20    
       rs  2.475e-14    
       id  7.604e-11    
       rx  2.062e+07    
       fn  5.284e-06    
    total  5.284e-06    




 element     0:m4
       rd  2.766e-20    
       rs  2.491e-14    
       id  7.654e-11    
       rx  2.069e+07    
       fn  5.318e-06    
    total  5.319e-06    




 element     0:mc0
       rd  9.300e-24    
       rs  9.956e-20    
       id    0.         
       rx  3.469e+05    
       fn  2.994e-10    
    total  2.994e-10    




 element     0:mc1
       rd  1.668e-22    
       rs  3.231e-19    
       id    0.         
       rx  1.799e+05    
       fn  2.730e-09    
    total  2.730e-09    




 element     0:mc2
       rd  1.324e-24    
       rs  2.146e-21    
       id  1.996e-18    
       rx  7.336e+03    
       fn  1.977e-11    
    total  1.977e-11    




 element     0:mc3
       rd  3.376e-23    
       rs  1.908e-19    
       id    0.         
       rx  1.872e+05    
       fn  5.635e-10    
    total  5.635e-10    




 element     0:mcx
       rd  4.969e-23    
       rs  8.340e-19    
       id  1.088e-15    
       rx  1.255e+05    
       fn  2.779e-09    
    total  2.779e-09    




 element     0:mcz
       rd  1.020e-24    
       rs  1.070e-19    
       id    0.         
       rx  1.255e+05    
       fn  1.149e-10    
    total  1.149e-10    




 element     0:mt
       rd    0.         
       rs    0.         
       id    0.         
       rx    0.         
       fn    0.         
    total    0.         




 **** total output noise voltage         = 2.852e-05       sq v/hz
                                         = 5.340e-03       v/rt hz
      transfer function value:
        v(2)/vinp                        = 261.3070       
      equivalent input noise at vinp                          
                                         = 2.044e-05       /rt hz



 **** the results of the sqrt of integral (v**2 / freq)
      from fstart upto    0.1995       hz. using more freq points
      results in more accurate total noise values.

 **** total output noise voltage   =  1.964e-03       volts
 **** total equivalent input noise =  7.516e-06      



1****** HSPICE -- B-2008.09-SP1 32-BIT (Nov 24 2008) linux ******               
 ******  
 ***myop_2stage_aboveth

  ******  noise analysis tnom=  25.000 temp=  25.000 *****

     frequency =   0.2512       hz




 **** mosfet squared noise voltages (sq v/hz)




 element     0:mb
       rd  4.920e-25    
       rs  8.440e-20    
       id  3.175e-16    
       rx  3.349e+04    
       fn  3.796e-11    
    total  3.796e-11    




 element     0:m1
       rd  6.528e-20    
       rs  1.563e-14    
       id  5.984e-11    
       rx  2.066e+07    
       fn  7.113e-06    
    total  7.113e-06    




 element     0:m2
       rd  2.901e-20    
       rs  1.563e-14    
       id  5.985e-11    
       rx  2.066e+07    
       fn  7.113e-06    
    total  7.113e-06    




 element     0:m3
       rd  2.766e-20    
       rs  2.475e-14    
       id  7.604e-11    
       rx  2.062e+07    
       fn  4.345e-06    
    total  4.345e-06    




 element     0:m4
       rd  2.766e-20    
       rs  2.491e-14    
       id  7.654e-11    
       rx  2.069e+07    
       fn  4.373e-06    
    total  4.373e-06    




 element     0:mc0
       rd  9.300e-24    
       rs  9.956e-20    
       id    0.         
       rx  3.469e+05    
       fn  2.378e-10    
    total  2.378e-10    




 element     0:mc1
       rd  1.668e-22    
       rs  3.231e-19    
       id    0.         
       rx  1.799e+05    
       fn  2.169e-09    
    total  2.169e-09    




 element     0:mc2
       rd  1.324e-24    
       rs  2.146e-21    
       id  1.996e-18    
       rx  7.336e+03    
       fn  1.571e-11    
    total  1.571e-11    




 element     0:mc3
       rd  3.376e-23    
       rs  1.908e-19    
       id    0.         
       rx  1.872e+05    
       fn  4.633e-10    
    total  4.633e-10    




 element     0:mcx
       rd  4.969e-23    
       rs  8.340e-19    
       id  1.088e-15    
       rx  1.255e+05    
       fn  2.208e-09    
    total  2.208e-09    




 element     0:mcz
       rd  1.020e-24    
       rs  1.070e-19    
       id    0.         
       rx  1.255e+05    
       fn  9.448e-11    
    total  9.448e-11    




 element     0:mt
       rd    0.         
       rs    0.         
       id    0.         
       rx    0.         
       fn    0.         
    total    0.         




 **** total output noise voltage         = 2.295e-05       sq v/hz
                                         = 4.791e-03       v/rt hz
      transfer function value:
        v(2)/vinp                        = 261.3070       
      equivalent input noise at vinp                          
                                         = 1.833e-05       /rt hz



 **** the results of the sqrt of integral (v**2 / freq)
      from fstart upto    0.2512       hz. using more freq points
      results in more accurate total noise values.

 **** total output noise voltage   =  2.275e-03       volts
 **** total equivalent input noise =  8.707e-06      



1****** HSPICE -- B-2008.09-SP1 32-BIT (Nov 24 2008) linux ******               
 ******  
 ***myop_2stage_aboveth

  ******  noise analysis tnom=  25.000 temp=  25.000 *****

     frequency =   0.3162       hz




 **** mosfet squared noise voltages (sq v/hz)




 element     0:mb
       rd  4.920e-25    
       rs  8.440e-20    
       id  3.175e-16    
       rx  3.349e+04    
       fn  3.015e-11    
    total  3.015e-11    




 element     0:m1
       rd  6.528e-20    
       rs  1.563e-14    
       id  5.984e-11    
       rx  2.066e+07    
       fn  5.650e-06    
    total  5.650e-06    




 element     0:m2
       rd  2.901e-20    
       rs  1.563e-14    
       id  5.985e-11    
       rx  2.066e+07    
       fn  5.650e-06    
    total  5.650e-06    




 element     0:m3
       rd  2.766e-20    
       rs  2.475e-14    
       id  7.604e-11    
       rx  2.062e+07    
       fn  3.572e-06    
    total  3.573e-06    




 element     0:m4
       rd  2.766e-20    
       rs  2.491e-14    
       id  7.654e-11    
       rx  2.069e+07    
       fn  3.596e-06    
    total  3.596e-06    




 element     0:mc0
       rd  9.300e-24    
       rs  9.956e-20    
       id    0.         
       rx  3.469e+05    
       fn  1.889e-10    
    total  1.889e-10    




 element     0:mc1
       rd  1.668e-22    
       rs  3.231e-19    
       id    0.         
       rx  1.799e+05    
       fn  1.723e-09    
    total  1.723e-09    




 element     0:mc2
       rd  1.324e-24    
       rs  2.146e-21    
       id  1.996e-18    
       rx  7.336e+03    
       fn  1.248e-11    
    total  1.248e-11    




 element     0:mc3
       rd  3.376e-23    
       rs  1.908e-19    
       id    0.         
       rx  1.872e+05    
       fn  3.809e-10    
    total  3.809e-10    




 element     0:mcx
       rd  4.969e-23    
       rs  8.340e-19    
       id  1.088e-15    
       rx  1.255e+05    
       fn  1.754e-09    
    total  1.754e-09    




 element     0:mcz
       rd  1.020e-24    
       rs  1.070e-19    
       id    0.         
       rx  1.255e+05    
       fn  7.768e-11    
    total  7.768e-11    




 element     0:mt
       rd    0.         
       rs    0.         
       id    0.         
       rx    0.         
       fn    0.         
    total    0.         




 **** total output noise voltage         = 1.847e-05       sq v/hz
                                         = 4.298e-03       v/rt hz
      transfer function value:
        v(2)/vinp                        = 261.3070       
      equivalent input noise at vinp                          
                                         = 1.645e-05       /rt hz



 **** the results of the sqrt of integral (v**2 / freq)
      from fstart upto    0.3162       hz. using more freq points
      results in more accurate total noise values.

 **** total output noise voltage   =  2.552e-03       volts
 **** total equivalent input noise =  9.766e-06      



1****** HSPICE -- B-2008.09-SP1 32-BIT (Nov 24 2008) linux ******               
 ******  
 ***myop_2stage_aboveth

  ******  noise analysis tnom=  25.000 temp=  25.000 *****

     frequency =   0.3981       hz




 **** mosfet squared noise voltages (sq v/hz)




 element     0:mb
       rd  4.920e-25    
       rs  8.440e-20    
       id  3.175e-16    
       rx  3.349e+04    
       fn  2.395e-11    
    total  2.395e-11    




 element     0:m1
       rd  6.528e-20    
       rs  1.563e-14    
       id  5.984e-11    
       rx  2.066e+07    
       fn  4.488e-06    
    total  4.488e-06    




 element     0:m2
       rd  2.901e-20    
       rs  1.563e-14    
       id  5.985e-11    
       rx  2.066e+07    
       fn  4.488e-06    
    total  4.488e-06    




 element     0:m3
       rd  2.766e-20    
       rs  2.475e-14    
       id  7.604e-11    
       rx  2.062e+07    
       fn  2.937e-06    
    total  2.937e-06    




 element     0:m4
       rd  2.766e-20    
       rs  2.491e-14    
       id  7.654e-11    
       rx  2.069e+07    
       fn  2.957e-06    
    total  2.957e-06    




 element     0:mc0
       rd  9.300e-24    
       rs  9.956e-20    
       id    0.         
       rx  3.469e+05    
       fn  1.500e-10    
    total  1.500e-10    




 element     0:mc1
       rd  1.668e-22    
       rs  3.231e-19    
       id    0.         
       rx  1.799e+05    
       fn  1.368e-09    
    total  1.368e-09    




 element     0:mc2
       rd  1.324e-24    
       rs  2.146e-21    
       id  1.996e-18    
       rx  7.336e+03    
       fn  9.910e-12    
    total  9.910e-12    




 element     0:mc3
       rd  3.376e-23    
       rs  1.908e-19    
       id    0.         
       rx  1.872e+05    
       fn  3.132e-10    
    total  3.132e-10    




 element     0:mcx
       rd  4.969e-23    
       rs  8.340e-19    
       id  1.088e-15    
       rx  1.255e+05    
       fn  1.393e-09    
    total  1.393e-09    




 element     0:mcz
       rd  1.020e-24    
       rs  1.070e-19    
       id    0.         
       rx  1.255e+05    
       fn  6.387e-11    
    total  6.387e-11    




 element     0:mt
       rd    0.         
       rs    0.         
       id    0.         
       rx    0.         
       fn    0.         
    total    0.         




 **** total output noise voltage         = 1.487e-05       sq v/hz
                                         = 3.857e-03       v/rt hz
      transfer function value:
        v(2)/vinp                        = 261.3070       
      equivalent input noise at vinp                          
                                         = 1.476e-05       /rt hz



 **** the results of the sqrt of integral (v**2 / freq)
      from fstart upto    0.3981       hz. using more freq points
      results in more accurate total noise values.

 **** total output noise voltage   =  2.805e-03       volts
 **** total equivalent input noise =  1.073e-05      



1****** HSPICE -- B-2008.09-SP1 32-BIT (Nov 24 2008) linux ******               
 ******  
 ***myop_2stage_aboveth

  ******  noise analysis tnom=  25.000 temp=  25.000 *****

     frequency =   0.5012       hz




 **** mosfet squared noise voltages (sq v/hz)




 element     0:mb
       rd  4.920e-25    
       rs  8.440e-20    
       id  3.175e-16    
       rx  3.349e+04    
       fn  1.903e-11    
    total  1.903e-11    




 element     0:m1
       rd  6.528e-20    
       rs  1.563e-14    
       id  5.984e-11    
       rx  2.066e+07    
       fn  3.565e-06    
    total  3.565e-06    




 element     0:m2
       rd  2.901e-20    
       rs  1.563e-14    
       id  5.985e-11    
       rx  2.066e+07    
       fn  3.565e-06    
    total  3.565e-06    




 element     0:m3
       rd  2.766e-20    
       rs  2.475e-14    
       id  7.604e-11    
       rx  2.062e+07    
       fn  2.415e-06    
    total  2.415e-06    




 element     0:m4
       rd  2.766e-20    
       rs  2.491e-14    
       id  7.654e-11    
       rx  2.069e+07    
       fn  2.431e-06    
    total  2.431e-06    




 element     0:mc0
       rd  9.300e-24    
       rs  9.956e-20    
       id    0.         
       rx  3.469e+05    
       fn  1.192e-10    
    total  1.192e-10    




 element     0:mc1
       rd  1.668e-22    
       rs  3.231e-19    
       id    0.         
       rx  1.799e+05    
       fn  1.087e-09    
    total  1.087e-09    




 element     0:mc2
       rd  1.324e-24    
       rs  2.146e-21    
       id  1.996e-18    
       rx  7.336e+03    
       fn  7.872e-12    
    total  7.872e-12    




 element     0:mc3
       rd  3.376e-23    
       rs  1.908e-19    
       id    0.         
       rx  1.872e+05    
       fn  2.576e-10    
    total  2.576e-10    




 element     0:mcx
       rd  4.969e-23    
       rs  8.340e-19    
       id  1.088e-15    
       rx  1.255e+05    
       fn  1.106e-09    
    total  1.106e-09    




 element     0:mcz
       rd  1.020e-24    
       rs  1.070e-19    
       id    0.         
       rx  1.255e+05    
       fn  5.252e-11    
    total  5.252e-11    




 element     0:mt
       rd    0.         
       rs    0.         
       id    0.         
       rx    0.         
       fn    0.         
    total    0.         




 **** total output noise voltage         = 1.198e-05       sq v/hz
                                         = 3.461e-03       v/rt hz
      transfer function value:
        v(2)/vinp                        = 261.3070       
      equivalent input noise at vinp                          
                                         = 1.325e-05       /rt hz



 **** the results of the sqrt of integral (v**2 / freq)
      from fstart upto    0.5012       hz. using more freq points
      results in more accurate total noise values.

 **** total output noise voltage   =  3.040e-03       volts
 **** total equivalent input noise =  1.163e-05      



1****** HSPICE -- B-2008.09-SP1 32-BIT (Nov 24 2008) linux ******               
 ******  
 ***myop_2stage_aboveth

  ******  noise analysis tnom=  25.000 temp=  25.000 *****

     frequency =   0.6310       hz




 **** mosfet squared noise voltages (sq v/hz)




 element     0:mb
       rd  4.920e-25    
       rs  8.440e-20    
       id  3.175e-16    
       rx  3.349e+04    
       fn  1.511e-11    
    total  1.511e-11    




 element     0:m1
       rd  6.528e-20    
       rs  1.563e-14    
       id  5.984e-11    
       rx  2.066e+07    
       fn  2.832e-06    
    total  2.832e-06    




 element     0:m2
       rd  2.901e-20    
       rs  1.563e-14    
       id  5.985e-11    
       rx  2.066e+07    
       fn  2.832e-06    
    total  2.832e-06    




 element     0:m3
       rd  2.766e-20    
       rs  2.475e-14    
       id  7.604e-11    
       rx  2.062e+07    
       fn  1.986e-06    
    total  1.986e-06    




 element     0:m4
       rd  2.766e-20    
       rs  2.491e-14    
       id  7.654e-11    
       rx  2.069e+07    
       fn  1.999e-06    
    total  1.999e-06    




 element     0:mc0
       rd  9.300e-24    
       rs  9.956e-20    
       id    0.         
       rx  3.469e+05    
       fn  9.467e-11    
    total  9.467e-11    




 element     0:mc1
       rd  1.668e-22    
       rs  3.231e-19    
       id    0.         
       rx  1.799e+05    
       fn  8.633e-10    
    total  8.633e-10    




 element     0:mc2
       rd  1.324e-24    
       rs  2.146e-21    
       id  1.996e-18    
       rx  7.336e+03    
       fn  6.253e-12    
    total  6.253e-12    




 element     0:mc3
       rd  3.376e-23    
       rs  1.908e-19    
       id    0.         
       rx  1.872e+05    
       fn  2.118e-10    
    total  2.118e-10    




 element     0:mcx
       rd  4.969e-23    
       rs  8.340e-19    
       id  1.088e-15    
       rx  1.255e+05    
       fn  8.789e-10    
    total  8.789e-10    




 element     0:mcz
       rd  1.020e-24    
       rs  1.070e-19    
       id    0.         
       rx  1.255e+05    
       fn  4.318e-11    
    total  4.318e-11    




 element     0:mt
       rd    0.         
       rs    0.         
       id    0.         
       rx    0.         
       fn    0.         
    total    0.         




 **** total output noise voltage         = 9.651e-06       sq v/hz
                                         = 3.107e-03       v/rt hz
      transfer function value:
        v(2)/vinp                        = 261.3070       
      equivalent input noise at vinp                          
                                         = 1.189e-05       /rt hz



 **** the results of the sqrt of integral (v**2 / freq)
      from fstart upto    0.6310       hz. using more freq points
      results in more accurate total noise values.

 **** total output noise voltage   =  3.261e-03       volts
 **** total equivalent input noise =  1.248e-05      



1****** HSPICE -- B-2008.09-SP1 32-BIT (Nov 24 2008) linux ******               
 ******  
 ***myop_2stage_aboveth

  ******  noise analysis tnom=  25.000 temp=  25.000 *****

     frequency =   0.7943       hz




 **** mosfet squared noise voltages (sq v/hz)




 element     0:mb
       rd  4.920e-25    
       rs  8.440e-20    
       id  3.175e-16    
       rx  3.349e+04    
       fn  1.200e-11    
    total  1.201e-11    




 element     0:m1
       rd  6.528e-20    
       rs  1.563e-14    
       id  5.984e-11    
       rx  2.066e+07    
       fn  2.249e-06    
    total  2.249e-06    




 element     0:m2
       rd  2.901e-20    
       rs  1.563e-14    
       id  5.985e-11    
       rx  2.066e+07    
       fn  2.249e-06    
    total  2.249e-06    




 element     0:m3
       rd  2.766e-20    
       rs  2.475e-14    
       id  7.604e-11    
       rx  2.062e+07    
       fn  1.633e-06    
    total  1.633e-06    




 element     0:m4
       rd  2.766e-20    
       rs  2.491e-14    
       id  7.654e-11    
       rx  2.069e+07    
       fn  1.644e-06    
    total  1.644e-06    




 element     0:mc0
       rd  9.300e-24    
       rs  9.956e-20    
       id    0.         
       rx  3.469e+05    
       fn  7.520e-11    
    total  7.520e-11    




 element     0:mc1
       rd  1.668e-22    
       rs  3.231e-19    
       id    0.         
       rx  1.799e+05    
       fn  6.858e-10    
    total  6.858e-10    




 element     0:mc2
       rd  1.324e-24    
       rs  2.146e-21    
       id  1.996e-18    
       rx  7.336e+03    
       fn  4.967e-12    
    total  4.967e-12    




 element     0:mc3
       rd  3.376e-23    
       rs  1.908e-19    
       id    0.         
       rx  1.872e+05    
       fn  1.741e-10    
    total  1.741e-10    




 element     0:mcx
       rd  4.969e-23    
       rs  8.340e-19    
       id  1.088e-15    
       rx  1.255e+05    
       fn  6.981e-10    
    total  6.981e-10    




 element     0:mcz
       rd  1.020e-24    
       rs  1.070e-19    
       id    0.         
       rx  1.255e+05    
       fn  3.551e-11    
    total  3.551e-11    




 element     0:mt
       rd    0.         
       rs    0.         
       id    0.         
       rx    0.         
       fn    0.         
    total    0.         




 **** total output noise voltage         = 7.777e-06       sq v/hz
                                         = 2.789e-03       v/rt hz
      transfer function value:
        v(2)/vinp                        = 261.3070       
      equivalent input noise at vinp                          
                                         = 1.067e-05       /rt hz



 **** the results of the sqrt of integral (v**2 / freq)
      from fstart upto    0.7943       hz. using more freq points
      results in more accurate total noise values.

 **** total output noise voltage   =  3.470e-03       volts
 **** total equivalent input noise =  1.328e-05      



1****** HSPICE -- B-2008.09-SP1 32-BIT (Nov 24 2008) linux ******               
 ******  
 ***myop_2stage_aboveth

  ******  noise analysis tnom=  25.000 temp=  25.000 *****

     frequency =   1.0000       hz




 **** mosfet squared noise voltages (sq v/hz)




 element     0:mb
       rd  4.920e-25    
       rs  8.440e-20    
       id  3.175e-16    
       rx  3.349e+04    
       fn  9.536e-12    
    total  9.536e-12    




 element     0:m1
       rd  6.528e-20    
       rs  1.563e-14    
       id  5.984e-11    
       rx  2.066e+07    
       fn  1.787e-06    
    total  1.787e-06    




 element     0:m2
       rd  2.901e-20    
       rs  1.563e-14    
       id  5.985e-11    
       rx  2.066e+07    
       fn  1.787e-06    
    total  1.787e-06    




 element     0:m3
       rd  2.766e-20    
       rs  2.475e-14    
       id  7.604e-11    
       rx  2.062e+07    
       fn  1.343e-06    
    total  1.343e-06    




 element     0:m4
       rd  2.766e-20    
       rs  2.491e-14    
       id  7.654e-11    
       rx  2.069e+07    
       fn  1.351e-06    
    total  1.351e-06    




 element     0:mc0
       rd  9.300e-24    
       rs  9.956e-20    
       id    0.         
       rx  3.469e+05    
       fn  5.973e-11    
    total  5.973e-11    




 element     0:mc1
       rd  1.668e-22    
       rs  3.231e-19    
       id    0.         
       rx  1.799e+05    
       fn  5.447e-10    
    total  5.447e-10    




 element     0:mc2
       rd  1.324e-24    
       rs  2.146e-21    
       id  1.996e-18    
       rx  7.336e+03    
       fn  3.945e-12    
    total  3.945e-12    




 element     0:mc3
       rd  3.376e-23    
       rs  1.908e-19    
       id    0.         
       rx  1.872e+05    
       fn  1.432e-10    
    total  1.432e-10    




 element     0:mcx
       rd  4.969e-23    
       rs  8.340e-19    
       id  1.088e-15    
       rx  1.255e+05    
       fn  5.545e-10    
    total  5.545e-10    




 element     0:mcz
       rd  1.020e-24    
       rs  1.070e-19    
       id    0.         
       rx  1.255e+05    
       fn  2.920e-11    
    total  2.920e-11    




 element     0:mt
       rd    0.         
       rs    0.         
       id    0.         
       rx    0.         
       fn    0.         
    total    0.         




 **** total output noise voltage         = 6.269e-06       sq v/hz
                                         = 2.504e-03       v/rt hz
      transfer function value:
        v(2)/vinp                        = 261.3070       
      equivalent input noise at vinp                          
                                         = 9.582e-06       /rt hz



 **** the results of the sqrt of integral (v**2 / freq)
      from fstart upto    1.0000       hz. using more freq points
      results in more accurate total noise values.

 **** total output noise voltage   =  3.671e-03       volts
 **** total equivalent input noise =  1.405e-05      



1****** HSPICE -- B-2008.09-SP1 32-BIT (Nov 24 2008) linux ******               
 ******  
 ***myop_2stage_aboveth

  ******  noise analysis tnom=  25.000 temp=  25.000 *****

     frequency =   1.2589       hz




 **** mosfet squared noise voltages (sq v/hz)




 element     0:mb
       rd  4.920e-25    
       rs  8.440e-20    
       id  3.175e-16    
       rx  3.349e+04    
       fn  7.574e-12    
    total  7.575e-12    




 element     0:m1
       rd  6.528e-20    
       rs  1.563e-14    
       id  5.984e-11    
       rx  2.066e+07    
       fn  1.419e-06    
    total  1.419e-06    




 element     0:m2
       rd  2.901e-20    
       rs  1.563e-14    
       id  5.985e-11    
       rx  2.066e+07    
       fn  1.419e-06    
    total  1.419e-06    




 element     0:m3
       rd  2.766e-20    
       rs  2.475e-14    
       id  7.604e-11    
       rx  2.062e+07    
       fn  1.104e-06    
    total  1.104e-06    




 element     0:m4
       rd  2.766e-20    
       rs  2.491e-14    
       id  7.654e-11    
       rx  2.069e+07    
       fn  1.111e-06    
    total  1.111e-06    




 element     0:mc0
       rd  9.300e-24    
       rs  9.956e-20    
       id    0.         
       rx  3.469e+05    
       fn  4.745e-11    
    total  4.745e-11    




 element     0:mc1
       rd  1.668e-22    
       rs  3.231e-19    
       id    0.         
       rx  1.799e+05    
       fn  4.327e-10    
    total  4.327e-10    




 element     0:mc2
       rd  1.324e-24    
       rs  2.146e-21    
       id  1.996e-18    
       rx  7.336e+03    
       fn  3.134e-12    
    total  3.134e-12    




 element     0:mc3
       rd  3.376e-23    
       rs  1.908e-19    
       id    0.         
       rx  1.872e+05    
       fn  1.177e-10    
    total  1.177e-10    




 element     0:mcx
       rd  4.969e-23    
       rs  8.340e-19    
       id  1.088e-15    
       rx  1.255e+05    
       fn  4.405e-10    
    total  4.405e-10    




 element     0:mcz
       rd  1.020e-24    
       rs  1.070e-19    
       id    0.         
       rx  1.255e+05    
       fn  2.401e-11    
    total  2.401e-11    




 element     0:mt
       rd    0.         
       rs    0.         
       id    0.         
       rx    0.         
       fn    0.         
    total    0.         




 **** total output noise voltage         = 5.055e-06       sq v/hz
                                         = 2.248e-03       v/rt hz
      transfer function value:
        v(2)/vinp                        = 261.3070       
      equivalent input noise at vinp                          
                                         = 8.604e-06       /rt hz



 **** the results of the sqrt of integral (v**2 / freq)
      from fstart upto    1.2589       hz. using more freq points
      results in more accurate total noise values.

 **** total output noise voltage   =  3.864e-03       volts
 **** total equivalent input noise =  1.479e-05      



1****** HSPICE -- B-2008.09-SP1 32-BIT (Nov 24 2008) linux ******               
 ******  
 ***myop_2stage_aboveth

  ******  noise analysis tnom=  25.000 temp=  25.000 *****

     frequency =   1.5849       hz




 **** mosfet squared noise voltages (sq v/hz)




 element     0:mb
       rd  4.920e-25    
       rs  8.440e-20    
       id  3.175e-16    
       rx  3.349e+04    
       fn  6.017e-12    
    total  6.017e-12    




 element     0:m1
       rd  6.528e-20    
       rs  1.563e-14    
       id  5.984e-11    
       rx  2.066e+07    
       fn  1.127e-06    
    total  1.127e-06    




 element     0:m2
       rd  2.901e-20    
       rs  1.563e-14    
       id  5.985e-11    
       rx  2.066e+07    
       fn  1.127e-06    
    total  1.127e-06    




 element     0:m3
       rd  2.766e-20    
       rs  2.475e-14    
       id  7.604e-11    
       rx  2.062e+07    
       fn  9.077e-07    
    total  9.078e-07    




 element     0:m4
       rd  2.766e-20    
       rs  2.491e-14    
       id  7.654e-11    
       rx  2.069e+07    
       fn  9.137e-07    
    total  9.137e-07    




 element     0:mc0
       rd  9.300e-24    
       rs  9.956e-20    
       id    0.         
       rx  3.469e+05    
       fn  3.769e-11    
    total  3.769e-11    




 element     0:mc1
       rd  1.668e-22    
       rs  3.231e-19    
       id    0.         
       rx  1.799e+05    
       fn  3.437e-10    
    total  3.437e-10    




 element     0:mc2
       rd  1.324e-24    
       rs  2.146e-21    
       id  1.996e-18    
       rx  7.336e+03    
       fn  2.489e-12    
    total  2.489e-12    




 element     0:mc3
       rd  3.376e-23    
       rs  1.908e-19    
       id    0.         
       rx  1.872e+05    
       fn  9.680e-11    
    total  9.680e-11    




 element     0:mcx
       rd  4.969e-23    
       rs  8.340e-19    
       id  1.088e-15    
       rx  1.255e+05    
       fn  3.499e-10    
    total  3.499e-10    




 element     0:mcz
       rd  1.020e-24    
       rs  1.070e-19    
       id    0.         
       rx  1.255e+05    
       fn  1.974e-11    
    total  1.974e-11    




 element     0:mt
       rd    0.         
       rs    0.         
       id    0.         
       rx    0.         
       fn    0.         
    total    0.         




 **** total output noise voltage         = 4.077e-06       sq v/hz
                                         = 2.019e-03       v/rt hz
      transfer function value:
        v(2)/vinp                        = 261.3070       
      equivalent input noise at vinp                          
                                         = 7.727e-06       /rt hz



 **** the results of the sqrt of integral (v**2 / freq)
      from fstart upto    1.5849       hz. using more freq points
      results in more accurate total noise values.

 **** total output noise voltage   =  4.051e-03       volts
 **** total equivalent input noise =  1.550e-05      



1****** HSPICE -- B-2008.09-SP1 32-BIT (Nov 24 2008) linux ******               
 ******  
 ***myop_2stage_aboveth

  ******  noise analysis tnom=  25.000 temp=  25.000 *****

     frequency =   1.9953       hz




 **** mosfet squared noise voltages (sq v/hz)




 element     0:mb
       rd  4.920e-25    
       rs  8.440e-20    
       id  3.175e-16    
       rx  3.349e+04    
       fn  4.779e-12    
    total  4.779e-12    




 element     0:m1
       rd  6.528e-20    
       rs  1.563e-14    
       id  5.984e-11    
       rx  2.066e+07    
       fn  8.955e-07    
    total  8.955e-07    




 element     0:m2
       rd  2.901e-20    
       rs  1.563e-14    
       id  5.985e-11    
       rx  2.066e+07    
       fn  8.955e-07    
    total  8.955e-07    




 element     0:m3
       rd  2.766e-20    
       rs  2.475e-14    
       id  7.604e-11    
       rx  2.062e+07    
       fn  7.464e-07    
    total  7.465e-07    




 element     0:m4
       rd  2.766e-20    
       rs  2.491e-14    
       id  7.654e-11    
       rx  2.069e+07    
       fn  7.513e-07    
    total  7.513e-07    




 element     0:mc0
       rd  9.300e-24    
       rs  9.956e-20    
       id    0.         
       rx  3.469e+05    
       fn  2.994e-11    
    total  2.994e-11    




 element     0:mc1
       rd  1.668e-22    
       rs  3.231e-19    
       id    0.         
       rx  1.799e+05    
       fn  2.730e-10    
    total  2.730e-10    




 element     0:mc2
       rd  1.324e-24    
       rs  2.146e-21    
       id  1.996e-18    
       rx  7.336e+03    
       fn  1.977e-12    
    total  1.977e-12    




 element     0:mc3
       rd  3.376e-23    
       rs  1.908e-19    
       id    0.         
       rx  1.872e+05    
       fn  7.959e-11    
    total  7.959e-11    




 element     0:mcx
       rd  4.969e-23    
       rs  8.340e-19    
       id  1.088e-15    
       rx  1.255e+05    
       fn  2.779e-10    
    total  2.779e-10    




 element     0:mcz
       rd  1.020e-24    
       rs  1.070e-19    
       id    0.         
       rx  1.255e+05    
       fn  1.623e-11    
    total  1.623e-11    




 element     0:mt
       rd    0.         
       rs    0.         
       id    0.         
       rx    0.         
       fn    0.         
    total    0.         




 **** total output noise voltage         = 3.290e-06       sq v/hz
                                         = 1.814e-03       v/rt hz
      transfer function value:
        v(2)/vinp                        = 261.3070       
      equivalent input noise at vinp                          
                                         = 6.941e-06       /rt hz



 **** the results of the sqrt of integral (v**2 / freq)
      from fstart upto    1.9953       hz. using more freq points
      results in more accurate total noise values.

 **** total output noise voltage   =  4.232e-03       volts
 **** total equivalent input noise =  1.619e-05      



1****** HSPICE -- B-2008.09-SP1 32-BIT (Nov 24 2008) linux ******               
 ******  
 ***myop_2stage_aboveth

  ******  noise analysis tnom=  25.000 temp=  25.000 *****

     frequency =   2.5119       hz




 **** mosfet squared noise voltages (sq v/hz)




 element     0:mb
       rd  4.920e-25    
       rs  8.440e-20    
       id  3.175e-16    
       rx  3.349e+04    
       fn  3.796e-12    
    total  3.797e-12    




 element     0:m1
       rd  6.528e-20    
       rs  1.563e-14    
       id  5.984e-11    
       rx  2.066e+07    
       fn  7.113e-07    
    total  7.113e-07    




 element     0:m2
       rd  2.901e-20    
       rs  1.563e-14    
       id  5.985e-11    
       rx  2.066e+07    
       fn  7.113e-07    
    total  7.114e-07    




 element     0:m3
       rd  2.766e-20    
       rs  2.475e-14    
       id  7.604e-11    
       rx  2.062e+07    
       fn  6.137e-07    
    total  6.138e-07    




 element     0:m4
       rd  2.766e-20    
       rs  2.491e-14    
       id  7.654e-11    
       rx  2.069e+07    
       fn  6.177e-07    
    total  6.178e-07    




 element     0:mc0
       rd  9.300e-24    
       rs  9.956e-20    
       id    0.         
       rx  3.469e+05    
       fn  2.378e-11    
    total  2.378e-11    




 element     0:mc1
       rd  1.668e-22    
       rs  3.231e-19    
       id    0.         
       rx  1.799e+05    
       fn  2.169e-10    
    total  2.169e-10    




 element     0:mc2
       rd  1.324e-24    
       rs  2.146e-21    
       id  1.996e-18    
       rx  7.336e+03    
       fn  1.571e-12    
    total  1.571e-12    




 element     0:mc3
       rd  3.376e-23    
       rs  1.908e-19    
       id    0.         
       rx  1.872e+05    
       fn  6.544e-11    
    total  6.544e-11    




 element     0:mcx
       rd  4.969e-23    
       rs  8.340e-19    
       id  1.088e-15    
       rx  1.255e+05    
       fn  2.208e-10    
    total  2.208e-10    




 element     0:mcz
       rd  1.020e-24    
       rs  1.070e-19    
       id    0.         
       rx  1.255e+05    
       fn  1.335e-11    
    total  1.335e-11    




 element     0:mt
       rd    0.         
       rs    0.         
       id    0.         
       rx    0.         
       fn    0.         
    total    0.         




 **** total output noise voltage         = 2.655e-06       sq v/hz
                                         = 1.629e-03       v/rt hz
      transfer function value:
        v(2)/vinp                        = 261.3070       
      equivalent input noise at vinp                          
                                         = 6.235e-06       /rt hz



 **** the results of the sqrt of integral (v**2 / freq)
      from fstart upto    2.5119       hz. using more freq points
      results in more accurate total noise values.

 **** total output noise voltage   =  4.408e-03       volts
 **** total equivalent input noise =  1.687e-05      



1****** HSPICE -- B-2008.09-SP1 32-BIT (Nov 24 2008) linux ******               
 ******  
 ***myop_2stage_aboveth

  ******  noise analysis tnom=  25.000 temp=  25.000 *****

     frequency =   3.1623       hz




 **** mosfet squared noise voltages (sq v/hz)




 element     0:mb
       rd  4.920e-25    
       rs  8.440e-20    
       id  3.175e-16    
       rx  3.349e+04    
       fn  3.015e-12    
    total  3.016e-12    




 element     0:m1
       rd  6.528e-20    
       rs  1.563e-14    
       id  5.984e-11    
       rx  2.066e+07    
       fn  5.650e-07    
    total  5.651e-07    




 element     0:m2
       rd  2.901e-20    
       rs  1.563e-14    
       id  5.985e-11    
       rx  2.066e+07    
       fn  5.650e-07    
    total  5.651e-07    




 element     0:m3
       rd  2.766e-20    
       rs  2.475e-14    
       id  7.604e-11    
       rx  2.062e+07    
       fn  5.046e-07    
    total  5.047e-07    




 element     0:m4
       rd  2.766e-20    
       rs  2.491e-14    
       id  7.654e-11    
       rx  2.069e+07    
       fn  5.079e-07    
    total  5.080e-07    




 element     0:mc0
       rd  9.300e-24    
       rs  9.956e-20    
       id    0.         
       rx  3.469e+05    
       fn  1.889e-11    
    total  1.889e-11    




 element     0:mc1
       rd  1.668e-22    
       rs  3.231e-19    
       id    0.         
       rx  1.799e+05    
       fn  1.723e-10    
    total  1.723e-10    




 element     0:mc2
       rd  1.324e-24    
       rs  2.146e-21    
       id  1.996e-18    
       rx  7.336e+03    
       fn  1.248e-12    
    total  1.248e-12    




 element     0:mc3
       rd  3.376e-23    
       rs  1.908e-19    
       id    0.         
       rx  1.872e+05    
       fn  5.381e-11    
    total  5.381e-11    




 element     0:mcx
       rd  4.969e-23    
       rs  8.340e-19    
       id  1.088e-15    
       rx  1.255e+05    
       fn  1.754e-10    
    total  1.754e-10    




 element     0:mcz
       rd  1.020e-24    
       rs  1.070e-19    
       id    0.         
       rx  1.255e+05    
       fn  1.097e-11    
    total  1.097e-11    




 element     0:mt
       rd    0.         
       rs    0.         
       id    0.         
       rx    0.         
       fn    0.         
    total    0.         




 **** total output noise voltage         = 2.143e-06       sq v/hz
                                         = 1.464e-03       v/rt hz
      transfer function value:
        v(2)/vinp                        = 261.3070       
      equivalent input noise at vinp                          
                                         = 5.603e-06       /rt hz



 **** the results of the sqrt of integral (v**2 / freq)
      from fstart upto    3.1623       hz. using more freq points
      results in more accurate total noise values.

 **** total output noise voltage   =  4.580e-03       volts
 **** total equivalent input noise =  1.753e-05      



1****** HSPICE -- B-2008.09-SP1 32-BIT (Nov 24 2008) linux ******               
 ******  
 ***myop_2stage_aboveth

  ******  noise analysis tnom=  25.000 temp=  25.000 *****

     frequency =   3.9811       hz




 **** mosfet squared noise voltages (sq v/hz)




 element     0:mb
       rd  4.920e-25    
       rs  8.440e-20    
       id  3.175e-16    
       rx  3.349e+04    
       fn  2.395e-12    
    total  2.396e-12    




 element     0:m1
       rd  6.528e-20    
       rs  1.563e-14    
       id  5.984e-11    
       rx  2.066e+07    
       fn  4.488e-07    
    total  4.489e-07    




 element     0:m2
       rd  2.901e-20    
       rs  1.563e-14    
       id  5.985e-11    
       rx  2.066e+07    
       fn  4.488e-07    
    total  4.489e-07    




 element     0:m3
       rd  2.766e-20    
       rs  2.475e-14    
       id  7.604e-11    
       rx  2.062e+07    
       fn  4.149e-07    
    total  4.150e-07    




 element     0:m4
       rd  2.766e-20    
       rs  2.491e-14    
       id  7.654e-11    
       rx  2.069e+07    
       fn  4.176e-07    
    total  4.177e-07    




 element     0:mc0
       rd  9.300e-24    
       rs  9.956e-20    
       id    0.         
       rx  3.469e+05    
       fn  1.500e-11    
    total  1.500e-11    




 element     0:mc1
       rd  1.668e-22    
       rs  3.231e-19    
       id    0.         
       rx  1.799e+05    
       fn  1.368e-10    
    total  1.368e-10    




 element     0:mc2
       rd  1.324e-24    
       rs  2.146e-21    
       id  1.996e-18    
       rx  7.336e+03    
       fn  9.910e-13    
    total  9.910e-13    




 element     0:mc3
       rd  3.376e-23    
       rs  1.908e-19    
       id    0.         
       rx  1.872e+05    
       fn  4.424e-11    
    total  4.424e-11    




 element     0:mcx
       rd  4.969e-23    
       rs  8.340e-19    
       id  1.088e-15    
       rx  1.255e+05    
       fn  1.393e-10    
    total  1.393e-10    




 element     0:mcz
       rd  1.020e-24    
       rs  1.070e-19    
       id    0.         
       rx  1.255e+05    
       fn  9.023e-12    
    total  9.023e-12    




 element     0:mt
       rd    0.         
       rs    0.         
       id    0.         
       rx    0.         
       fn    0.         
    total    0.         




 **** total output noise voltage         = 1.731e-06       sq v/hz
                                         = 1.316e-03       v/rt hz
      transfer function value:
        v(2)/vinp                        = 261.3070       
      equivalent input noise at vinp                          
                                         = 5.035e-06       /rt hz



 **** the results of the sqrt of integral (v**2 / freq)
      from fstart upto    3.9811       hz. using more freq points
      results in more accurate total noise values.

 **** total output noise voltage   =  4.749e-03       volts
 **** total equivalent input noise =  1.817e-05      



1****** HSPICE -- B-2008.09-SP1 32-BIT (Nov 24 2008) linux ******               
 ******  
 ***myop_2stage_aboveth

  ******  noise analysis tnom=  25.000 temp=  25.000 *****

     frequency =   5.0119       hz




 **** mosfet squared noise voltages (sq v/hz)




 element     0:mb
       rd  4.920e-25    
       rs  8.440e-20    
       id  3.175e-16    
       rx  3.349e+04    
       fn  1.903e-12    
    total  1.903e-12    




 element     0:m1
       rd  6.528e-20    
       rs  1.563e-14    
       id  5.984e-11    
       rx  2.066e+07    
       fn  3.565e-07    
    total  3.565e-07    




 element     0:m2
       rd  2.901e-20    
       rs  1.563e-14    
       id  5.985e-11    
       rx  2.066e+07    
       fn  3.565e-07    
    total  3.566e-07    




 element     0:m3
       rd  2.766e-20    
       rs  2.475e-14    
       id  7.604e-11    
       rx  2.062e+07    
       fn  3.412e-07    
    total  3.412e-07    




 element     0:m4
       rd  2.766e-20    
       rs  2.491e-14    
       id  7.654e-11    
       rx  2.069e+07    
       fn  3.434e-07    
    total  3.435e-07    




 element     0:mc0
       rd  9.300e-24    
       rs  9.956e-20    
       id    0.         
       rx  3.469e+05    
       fn  1.192e-11    
    total  1.192e-11    




 element     0:mc1
       rd  1.668e-22    
       rs  3.231e-19    
       id    0.         
       rx  1.799e+05    
       fn  1.087e-10    
    total  1.087e-10    




 element     0:mc2
       rd  1.324e-24    
       rs  2.146e-21    
       id  1.996e-18    
       rx  7.336e+03    
       fn  7.872e-13    
    total  7.872e-13    




 element     0:mc3
       rd  3.376e-23    
       rs  1.908e-19    
       id    0.         
       rx  1.872e+05    
       fn  3.638e-11    
    total  3.638e-11    




 element     0:mcx
       rd  4.969e-23    
       rs  8.340e-19    
       id  1.088e-15    
       rx  1.255e+05    
       fn  1.106e-10    
    total  1.106e-10    




 element     0:mcz
       rd  1.020e-24    
       rs  1.070e-19    
       id    0.         
       rx  1.255e+05    
       fn  7.419e-12    
    total  7.419e-12    




 element     0:mt
       rd    0.         
       rs    0.         
       id    0.         
       rx    0.         
       fn    0.         
    total    0.         




 **** total output noise voltage         = 1.398e-06       sq v/hz
                                         = 1.182e-03       v/rt hz
      transfer function value:
        v(2)/vinp                        = 261.3070       
      equivalent input noise at vinp                          
                                         = 4.525e-06       /rt hz



 **** the results of the sqrt of integral (v**2 / freq)
      from fstart upto    5.0119       hz. using more freq points
      results in more accurate total noise values.

 **** total output noise voltage   =  4.914e-03       volts
 **** total equivalent input noise =  1.881e-05      



1****** HSPICE -- B-2008.09-SP1 32-BIT (Nov 24 2008) linux ******               
 ******  
 ***myop_2stage_aboveth

  ******  noise analysis tnom=  25.000 temp=  25.000 *****

     frequency =   6.3096       hz




 **** mosfet squared noise voltages (sq v/hz)




 element     0:mb
       rd  4.920e-25    
       rs  8.440e-20    
       id  3.175e-16    
       rx  3.349e+04    
       fn  1.511e-12    
    total  1.512e-12    




 element     0:m1
       rd  6.528e-20    
       rs  1.563e-14    
       id  5.984e-11    
       rx  2.066e+07    
       fn  2.832e-07    
    total  2.832e-07    




 element     0:m2
       rd  2.901e-20    
       rs  1.563e-14    
       id  5.985e-11    
       rx  2.066e+07    
       fn  2.832e-07    
    total  2.832e-07    




 element     0:m3
       rd  2.766e-20    
       rs  2.475e-14    
       id  7.604e-11    
       rx  2.062e+07    
       fn  2.805e-07    
    total  2.806e-07    




 element     0:m4
       rd  2.766e-20    
       rs  2.491e-14    
       id  7.654e-11    
       rx  2.069e+07    
       fn  2.824e-07    
    total  2.824e-07    




 element     0:mc0
       rd  9.300e-24    
       rs  9.956e-20    
       id    0.         
       rx  3.469e+05    
       fn  9.467e-12    
    total  9.467e-12    




 element     0:mc1
       rd  1.668e-22    
       rs  3.231e-19    
       id    0.         
       rx  1.799e+05    
       fn  8.633e-11    
    total  8.633e-11    




 element     0:mc2
       rd  1.324e-24    
       rs  2.146e-21    
       id  1.996e-18    
       rx  7.336e+03    
       fn  6.253e-13    
    total  6.253e-13    




 element     0:mc3
       rd  3.376e-23    
       rs  1.908e-19    
       id    0.         
       rx  1.872e+05    
       fn  2.991e-11    
    total  2.991e-11    




 element     0:mcx
       rd  4.969e-23    
       rs  8.340e-19    
       id  1.088e-15    
       rx  1.255e+05    
       fn  8.789e-11    
    total  8.789e-11    




 element     0:mcz
       rd  1.020e-24    
       rs  1.070e-19    
       id    0.         
       rx  1.255e+05    
       fn  6.100e-12    
    total  6.100e-12    




 element     0:mt
       rd    0.         
       rs    0.         
       id    0.         
       rx    0.         
       fn    0.         
    total    0.         




 **** total output noise voltage         = 1.130e-06       sq v/hz
                                         = 1.063e-03       v/rt hz
      transfer function value:
        v(2)/vinp                        = 261.3070       
      equivalent input noise at vinp                          
                                         = 4.068e-06       /rt hz



 **** the results of the sqrt of integral (v**2 / freq)
      from fstart upto    6.3096       hz. using more freq points
      results in more accurate total noise values.

 **** total output noise voltage   =  5.077e-03       volts
 **** total equivalent input noise =  1.943e-05      



1****** HSPICE -- B-2008.09-SP1 32-BIT (Nov 24 2008) linux ******               
 ******  
 ***myop_2stage_aboveth

  ******  noise analysis tnom=  25.000 temp=  25.000 *****

     frequency =   7.9433       hz




 **** mosfet squared noise voltages (sq v/hz)




 element     0:mb
       rd  4.920e-25    
       rs  8.440e-20    
       id  3.175e-16    
       rx  3.349e+04    
       fn  1.200e-12    
    total  1.201e-12    




 element     0:m1
       rd  6.528e-20    
       rs  1.563e-14    
       id  5.984e-11    
       rx  2.066e+07    
       fn  2.249e-07    
    total  2.250e-07    




 element     0:m2
       rd  2.901e-20    
       rs  1.563e-14    
       id  5.985e-11    
       rx  2.066e+07    
       fn  2.249e-07    
    total  2.250e-07    




 element     0:m3
       rd  2.766e-20    
       rs  2.475e-14    
       id  7.604e-11    
       rx  2.062e+07    
       fn  2.307e-07    
    total  2.307e-07    




 element     0:m4
       rd  2.766e-20    
       rs  2.491e-14    
       id  7.654e-11    
       rx  2.069e+07    
       fn  2.322e-07    
    total  2.322e-07    




 element     0:mc0
       rd  9.300e-24    
       rs  9.956e-20    
       id    0.         
       rx  3.469e+05    
       fn  7.520e-12    
    total  7.520e-12    




 element     0:mc1
       rd  1.668e-22    
       rs  3.231e-19    
       id    0.         
       rx  1.799e+05    
       fn  6.858e-11    
    total  6.858e-11    




 element     0:mc2
       rd  1.324e-24    
       rs  2.146e-21    
       id  1.996e-18    
       rx  7.336e+03    
       fn  4.967e-13    
    total  4.967e-13    




 element     0:mc3
       rd  3.376e-23    
       rs  1.908e-19    
       id    0.         
       rx  1.872e+05    
       fn  2.460e-11    
    total  2.460e-11    




 element     0:mcx
       rd  4.969e-23    
       rs  8.340e-19    
       id  1.088e-15    
       rx  1.255e+05    
       fn  6.981e-11    
    total  6.981e-11    




 element     0:mcz
       rd  1.020e-24    
       rs  1.070e-19    
       id    0.         
       rx  1.255e+05    
       fn  5.016e-12    
    total  5.016e-12    




 element     0:mt
       rd    0.         
       rs    0.         
       id    0.         
       rx    0.         
       fn    0.         
    total    0.         




 **** total output noise voltage         = 9.131e-07       sq v/hz
                                         = 9.556e-04       v/rt hz
      transfer function value:
        v(2)/vinp                        = 261.3070       
      equivalent input noise at vinp                          
                                         = 3.657e-06       /rt hz



 **** the results of the sqrt of integral (v**2 / freq)
      from fstart upto    7.9433       hz. using more freq points
      results in more accurate total noise values.

 **** total output noise voltage   =  5.238e-03       volts
 **** total equivalent input noise =  2.004e-05      



1****** HSPICE -- B-2008.09-SP1 32-BIT (Nov 24 2008) linux ******               
 ******  
 ***myop_2stage_aboveth

  ******  noise analysis tnom=  25.000 temp=  25.000 *****

     frequency =  10.0000       hz




 **** mosfet squared noise voltages (sq v/hz)




 element     0:mb
       rd  4.920e-25    
       rs  8.440e-20    
       id  3.175e-16    
       rx  3.349e+04    
       fn  9.536e-13    
    total  9.539e-13    




 element     0:m1
       rd  6.528e-20    
       rs  1.563e-14    
       id  5.984e-11    
       rx  2.066e+07    
       fn  1.787e-07    
    total  1.787e-07    




 element     0:m2
       rd  2.901e-20    
       rs  1.563e-14    
       id  5.985e-11    
       rx  2.066e+07    
       fn  1.787e-07    
    total  1.787e-07    




 element     0:m3
       rd  2.766e-20    
       rs  2.475e-14    
       id  7.604e-11    
       rx  2.062e+07    
       fn  1.897e-07    
    total  1.897e-07    




 element     0:m4
       rd  2.766e-20    
       rs  2.491e-14    
       id  7.654e-11    
       rx  2.069e+07    
       fn  1.909e-07    
    total  1.910e-07    




 element     0:mc0
       rd  9.300e-24    
       rs  9.956e-20    
       id    0.         
       rx  3.469e+05    
       fn  5.973e-12    
    total  5.973e-12    




 element     0:mc1
       rd  1.668e-22    
       rs  3.231e-19    
       id    0.         
       rx  1.799e+05    
       fn  5.447e-11    
    total  5.447e-11    




 element     0:mc2
       rd  1.324e-24    
       rs  2.146e-21    
       id  1.996e-18    
       rx  7.336e+03    
       fn  3.945e-13    
    total  3.945e-13    




 element     0:mc3
       rd  3.376e-23    
       rs  1.908e-19    
       id    0.         
       rx  1.872e+05    
       fn  2.022e-11    
    total  2.022e-11    




 element     0:mcx
       rd  4.969e-23    
       rs  8.340e-19    
       id  1.088e-15    
       rx  1.255e+05    
       fn  5.545e-11    
    total  5.546e-11    




 element     0:mcz
       rd  1.020e-24    
       rs  1.070e-19    
       id    0.         
       rx  1.255e+05    
       fn  4.124e-12    
    total  4.124e-12    




 element     0:mt
       rd    0.         
       rs    0.         
       id    0.         
       rx    0.         
       fn    0.         
    total    0.         




 **** total output noise voltage         = 7.383e-07       sq v/hz
                                         = 8.592e-04       v/rt hz
      transfer function value:
        v(2)/vinp                        = 261.3070       
      equivalent input noise at vinp                          
                                         = 3.288e-06       /rt hz



 **** the results of the sqrt of integral (v**2 / freq)
      from fstart upto   10.0000       hz. using more freq points
      results in more accurate total noise values.

 **** total output noise voltage   =  5.396e-03       volts
 **** total equivalent input noise =  2.065e-05      



1****** HSPICE -- B-2008.09-SP1 32-BIT (Nov 24 2008) linux ******               
 ******  
 ***myop_2stage_aboveth

  ******  noise analysis tnom=  25.000 temp=  25.000 *****

     frequency =  12.5893       hz




 **** mosfet squared noise voltages (sq v/hz)




 element     0:mb
       rd  4.920e-25    
       rs  8.440e-20    
       id  3.175e-16    
       rx  3.349e+04    
       fn  7.574e-13    
    total  7.578e-13    




 element     0:m1
       rd  6.528e-20    
       rs  1.563e-14    
       id  5.984e-11    
       rx  2.066e+07    
       fn  1.419e-07    
    total  1.420e-07    




 element     0:m2
       rd  2.901e-20    
       rs  1.563e-14    
       id  5.985e-11    
       rx  2.066e+07    
       fn  1.419e-07    
    total  1.420e-07    




 element     0:m3
       rd  2.766e-20    
       rs  2.475e-14    
       id  7.604e-11    
       rx  2.062e+07    
       fn  1.559e-07    
    total  1.560e-07    




 element     0:m4
       rd  2.766e-20    
       rs  2.491e-14    
       id  7.654e-11    
       rx  2.069e+07    
       fn  1.570e-07    
    total  1.570e-07    




 element     0:mc0
       rd  9.300e-24    
       rs  9.956e-20    
       id    0.         
       rx  3.469e+05    
       fn  4.745e-12    
    total  4.745e-12    




 element     0:mc1
       rd  1.668e-22    
       rs  3.231e-19    
       id    0.         
       rx  1.799e+05    
       fn  4.327e-11    
    total  4.327e-11    




 element     0:mc2
       rd  1.324e-24    
       rs  2.146e-21    
       id  1.996e-18    
       rx  7.336e+03    
       fn  3.134e-13    
    total  3.134e-13    




 element     0:mc3
       rd  3.376e-23    
       rs  1.908e-19    
       id    0.         
       rx  1.872e+05    
       fn  1.663e-11    
    total  1.663e-11    




 element     0:mcx
       rd  4.969e-23    
       rs  8.340e-19    
       id  1.088e-15    
       rx  1.255e+05    
       fn  4.405e-11    
    total  4.405e-11    




 element     0:mcz
       rd  1.020e-24    
       rs  1.070e-19    
       id    0.         
       rx  1.255e+05    
       fn  3.391e-12    
    total  3.391e-12    




 element     0:mt
       rd    0.         
       rs    0.         
       id    0.         
       rx    0.         
       fn    0.         
    total    0.         




 **** total output noise voltage         = 5.971e-07       sq v/hz
                                         = 7.727e-04       v/rt hz
      transfer function value:
        v(2)/vinp                        = 261.3070       
      equivalent input noise at vinp                          
                                         = 2.957e-06       /rt hz



 **** the results of the sqrt of integral (v**2 / freq)
      from fstart upto   12.5893       hz. using more freq points
      results in more accurate total noise values.

 **** total output noise voltage   =  5.553e-03       volts
 **** total equivalent input noise =  2.125e-05      



1****** HSPICE -- B-2008.09-SP1 32-BIT (Nov 24 2008) linux ******               
 ******  
 ***myop_2stage_aboveth

  ******  noise analysis tnom=  25.000 temp=  25.000 *****

     frequency =  15.8489       hz




 **** mosfet squared noise voltages (sq v/hz)




 element     0:mb
       rd  4.920e-25    
       rs  8.440e-20    
       id  3.175e-16    
       rx  3.349e+04    
       fn  6.017e-13    
    total  6.020e-13    




 element     0:m1
       rd  6.528e-20    
       rs  1.563e-14    
       id  5.984e-11    
       rx  2.066e+07    
       fn  1.127e-07    
    total  1.128e-07    




 element     0:m2
       rd  2.901e-20    
       rs  1.563e-14    
       id  5.985e-11    
       rx  2.066e+07    
       fn  1.127e-07    
    total  1.128e-07    




 element     0:m3
       rd  2.766e-20    
       rs  2.475e-14    
       id  7.604e-11    
       rx  2.062e+07    
       fn  1.282e-07    
    total  1.283e-07    




 element     0:m4
       rd  2.766e-20    
       rs  2.491e-14    
       id  7.654e-11    
       rx  2.069e+07    
       fn  1.291e-07    
    total  1.291e-07    




 element     0:mc0
       rd  9.300e-24    
       rs  9.956e-20    
       id    0.         
       rx  3.469e+05    
       fn  3.769e-12    
    total  3.769e-12    




 element     0:mc1
       rd  1.668e-22    
       rs  3.231e-19    
       id    0.         
       rx  1.799e+05    
       fn  3.437e-11    
    total  3.437e-11    




 element     0:mc2
       rd  1.324e-24    
       rs  2.146e-21    
       id  1.996e-18    
       rx  7.336e+03    
       fn  2.489e-13    
    total  2.489e-13    




 element     0:mc3
       rd  3.376e-23    
       rs  1.908e-19    
       id    0.         
       rx  1.872e+05    
       fn  1.367e-11    
    total  1.367e-11    




 element     0:mcx
       rd  4.969e-23    
       rs  8.340e-19    
       id  1.088e-15    
       rx  1.255e+05    
       fn  3.499e-11    
    total  3.499e-11    




 element     0:mcz
       rd  1.020e-24    
       rs  1.070e-19    
       id    0.         
       rx  1.255e+05    
       fn  2.788e-12    
    total  2.788e-12    




 element     0:mt
       rd    0.         
       rs    0.         
       id    0.         
       rx    0.         
       fn    0.         
    total    0.         




 **** total output noise voltage         = 4.831e-07       sq v/hz
                                         = 6.951e-04       v/rt hz
      transfer function value:
        v(2)/vinp                        = 261.3070       
      equivalent input noise at vinp                          
                                         = 2.660e-06       /rt hz



 **** the results of the sqrt of integral (v**2 / freq)
      from fstart upto   15.8489       hz. using more freq points
      results in more accurate total noise values.

 **** total output noise voltage   =  5.708e-03       volts
 **** total equivalent input noise =  2.184e-05      



1****** HSPICE -- B-2008.09-SP1 32-BIT (Nov 24 2008) linux ******               
 ******  
 ***myop_2stage_aboveth

  ******  noise analysis tnom=  25.000 temp=  25.000 *****

     frequency =  19.9526       hz




 **** mosfet squared noise voltages (sq v/hz)




 element     0:mb
       rd  4.920e-25    
       rs  8.440e-20    
       id  3.175e-16    
       rx  3.349e+04    
       fn  4.779e-13    
    total  4.782e-13    




 element     0:m1
       rd  6.528e-20    
       rs  1.563e-14    
       id  5.984e-11    
       rx  2.066e+07    
       fn  8.955e-08    
    total  8.961e-08    




 element     0:m2
       rd  2.901e-20    
       rs  1.563e-14    
       id  5.985e-11    
       rx  2.066e+07    
       fn  8.955e-08    
    total  8.961e-08    




 element     0:m3
       rd  2.766e-20    
       rs  2.475e-14    
       id  7.604e-11    
       rx  2.062e+07    
       fn  1.054e-07    
    total  1.055e-07    




 element     0:m4
       rd  2.766e-20    
       rs  2.491e-14    
       id  7.654e-11    
       rx  2.069e+07    
       fn  1.061e-07    
    total  1.062e-07    




 element     0:mc0
       rd  9.300e-24    
       rs  9.956e-20    
[...]
 **** total equivalent input noise =  1.535e-03      



1****** HSPICE -- B-2008.09-SP1 32-BIT (Nov 24 2008) linux ******               
 ******  
 ***myop_2stage_aboveth

  ******  noise analysis tnom=  25.000 temp=  25.000 *****

     frequency = 3.162e+08      hz




 **** mosfet squared noise voltages (sq v/hz)




 element     0:mb
       rd  2.649e-22    
       rs  4.466e-23    
       id  9.747e-19    
       rx  1.856e+03    
       fn  9.257e-23    
    total  9.751e-19    




 element     0:m1
       rd  4.739e-22    
       rs  1.143e-20    
       id  2.972e-18    
       rx  4.604e+03    
       fn  2.806e-22    
    total  2.984e-18    




 element     0:m2
       rd  5.527e-20    
       rs  4.715e-20    
       id  3.049e-16    
       rx  4.663e+04    
       fn  2.878e-20    
    total  3.050e-16    




 element     0:m3
       rd  7.595e-23    
       rs  1.188e-20    
       id  1.809e-18    
       rx  3.181e+03    
       fn  1.903e-21    
    total  1.823e-18    




 element     0:m4
       rd  2.411e-20    
       rs  6.753e-20    
       id  4.115e-16    
       rx  4.798e+04    
       fn  4.328e-19    
    total  4.121e-16    




 element     0:mc0
       rd    0.         
       rs    0.         
       id    0.         
       rx    0.2515     
       fn    0.         
    total    0.         




 element     0:mc1
       rd  7.112e-28    
       rs  1.660e-28    
       id    0.         
       rx    4.1593     
       fn  9.207e-28    
    total  1.798e-27    




 element     0:mc2
       rd  1.233e-27    
       rs  5.459e-27    
       id  4.990e-24    
       rx   11.5983     
       fn  3.118e-26    
    total  5.028e-24    




 element     0:mc3
       rd  8.034e-27    
       rs  1.448e-27    
       id    0.         
       rx   14.6906     
       fn  5.249e-26    
    total  6.197e-26    




 element     0:mcx
       rd  9.696e-26    
       rs  8.775e-25    
       id  7.851e-22    
       rx  106.6102     
       fn  1.265e-24    
    total  7.873e-22    




 element     0:mcz
       rd  7.214e-25    
       rs  6.694e-26    
       id    0.         
       rx  106.6505     
       fn  1.255e-24    
    total  2.043e-24    




 element     0:mt
       rd    0.         
       rs    0.         
       id    0.         
       rx    0.         
       fn    0.         
    total    0.         




 **** total output noise voltage         = 7.229e-16       sq v/hz
                                         = 2.689e-08       v/rt hz
      transfer function value:
        v(2)/vinp                        =   0.3182       
      equivalent input noise at vinp                          
                                         = 8.450e-08       /rt hz



 **** the results of the sqrt of integral (v**2 / freq)
      from fstart upto  3.162e+08      hz. using more freq points
      results in more accurate total noise values.

 **** total output noise voltage   =  2.173e-02       volts
 **** total equivalent input noise =  1.694e-03      



1****** HSPICE -- B-2008.09-SP1 32-BIT (Nov 24 2008) linux ******               
 ******  
 ***myop_2stage_aboveth

  ******  noise analysis tnom=  25.000 temp=  25.000 *****

     frequency = 3.981e+08      hz




 **** mosfet squared noise voltages (sq v/hz)




 element     0:mb
       rd  2.082e-22    
       rs  2.293e-23    
       id  4.839e-19    
       rx  1.307e+03    
       fn  3.650e-23    
    total  4.841e-19    




 element     0:m1
       rd  3.034e-22    
       rs  9.287e-21    
       id  1.209e-18    
       rx  2.936e+03    
       fn  9.068e-23    
    total  1.219e-18    




 element     0:m2
       rd  5.532e-20    
       rs  3.193e-20    
       id  1.926e-16    
       rx  3.706e+04    
       fn  1.444e-20    
    total  1.927e-16    




 element     0:m3
       rd  4.825e-23    
       rs  7.407e-21    
       id  7.254e-19    
       rx  2.014e+03    
       fn  6.273e-22    
    total  7.335e-19    




 element     0:m4
       rd  2.407e-20    
       rs  4.254e-20    
       id  2.594e-16    
       rx  3.809e+04    
       fn  2.243e-19    
    total  2.597e-16    




 element     0:mc0
       rd    0.         
       rs    0.         
       id    0.         
       rx  9.312e-02    
       fn    0.         
    total    0.         




 element     0:mc1
       rd  2.241e-28    
       rs    0.         
       id    0.         
       rx    1.8547     
       fn  1.454e-28    
    total  4.025e-28    




 element     0:mc2
       rd  4.944e-28    
       rs  1.393e-27    
       id  1.263e-24    
       rx    5.8358     
       fn  6.271e-27    
    total  1.272e-24    




 element     0:mc3
       rd  3.160e-27    
       rs  3.990e-28    
       id    0.         
       rx    7.3184     
       fn  1.071e-26    
    total  1.427e-26    




 element     0:mcx
       rd  4.894e-26    
       rs  3.311e-25    
       id  2.502e-22    
       rx   60.1893     
       fn  3.203e-25    
    total  2.509e-22    




 element     0:mcz
       rd  3.632e-25    
       rs  2.136e-26    
       id    0.         
       rx   60.2120     
       fn  3.288e-25    
    total  7.134e-25    




 element     0:mt
       rd    0.         
       rs    0.         
       id    0.         
       rx    0.         
       fn    0.         
    total    0.         




 **** total output noise voltage         = 4.548e-16       sq v/hz
                                         = 2.133e-08       v/rt hz
      transfer function value:
        v(2)/vinp                        =   0.2875       
      equivalent input noise at vinp                          
                                         = 7.418e-08       /rt hz



 **** the results of the sqrt of integral (v**2 / freq)
      from fstart upto  3.981e+08      hz. using more freq points
      results in more accurate total noise values.

 **** total output noise voltage   =  2.174e-02       volts
 **** total equivalent input noise =  1.840e-03      



1****** HSPICE -- B-2008.09-SP1 32-BIT (Nov 24 2008) linux ******               
 ******  
 ***myop_2stage_aboveth

  ******  noise analysis tnom=  25.000 temp=  25.000 *****

     frequency = 5.011e+08      hz




 **** mosfet squared noise voltages (sq v/hz)




 element     0:mb
       rd  1.725e-22    
       rs  1.263e-23    
       id  2.529e-19    
       rx  945.4856     
       fn  1.516e-23    
    total  2.531e-19    




 element     0:m1
       rd  1.956e-22    
       rs  8.008e-21    
       id  4.974e-19    
       rx  1.883e+03    
       fn  2.963e-23    
    total  5.057e-19    




 element     0:m2
       rd  5.535e-20    
       rs  2.235e-20    
       id  1.216e-16    
       rx  2.945e+04    
       fn  7.245e-21    
    total  1.217e-16    




 element     0:m3
       rd  3.076e-23    
       rs  4.667e-21    
       id  2.918e-19    
       rx  1.277e+03    
       fn  2.075e-22    
    total  2.967e-19    




 element     0:m4
       rd  2.405e-20    
       rs  2.684e-20    
       id  1.636e-16    
       rx  3.025e+04    
       fn  1.163e-19    
    total  1.637e-16    




 element     0:mc0
       rd    0.         
       rs    0.         
       id    0.         
       rx  3.798e-02    
       fn    0.         
    total    0.         




 element     0:mc1
       rd    0.         
       rs    0.         
       id    0.         
       rx    0.8942     
       fn    0.         
    total  1.171e-28    




 element     0:mc2
       rd  2.199e-28    
       rs  3.961e-28    
       id  3.548e-25    
       rx    3.0928     
       fn  1.399e-27    
    total  3.569e-25    




 element     0:mc3
       rd  1.389e-27    
       rs  1.281e-28    
       id    0.         
       rx    3.8538     
       fn  2.442e-27    
    total  3.959e-27    




 element     0:mcx
       rd  2.626e-26    
       rs  1.398e-25    
       id  8.478e-23    
       rx   35.0328     
       fn  8.620e-26    
    total  8.503e-23    




 element     0:mcz
       rd  1.946e-25    
       rs  7.252e-27    
       id    0.         
       rx   35.0460     
       fn  9.160e-26    
    total  2.934e-25    




 element     0:mt
       rd    0.         
       rs    0.         
       id    0.         
       rx    0.         
       fn    0.         
    total    0.         




 **** total output noise voltage         = 2.865e-16       sq v/hz
                                         = 1.693e-08       v/rt hz
      transfer function value:
        v(2)/vinp                        =   0.2668       
      equivalent input noise at vinp                          
                                         = 6.345e-08       /rt hz



 **** the results of the sqrt of integral (v**2 / freq)
      from fstart upto  5.011e+08      hz. using more freq points
      results in more accurate total noise values.

 **** total output noise voltage   =  2.174e-02       volts
 **** total equivalent input noise =  1.968e-03      



1****** HSPICE -- B-2008.09-SP1 32-BIT (Nov 24 2008) linux ******               
 ******  
 ***myop_2stage_aboveth

  ******  noise analysis tnom=  25.000 temp=  25.000 *****

     frequency = 6.309e+08      hz




 **** mosfet squared noise voltages (sq v/hz)




 element     0:mb
       rd  1.500e-22    
       rs  7.492e-24    
       id  1.387e-19    
       rx  700.1753     
       fn  6.603e-24    
    total  1.389e-19    




 element     0:m1
       rd  1.275e-22    
       rs  7.230e-21    
       id  2.080e-19    
       rx  1.218e+03    
       fn  9.842e-24    
    total  2.154e-19    




 element     0:m2
       rd  5.537e-20    
       rs  1.632e-20    
       id  7.678e-17    
       rx  2.340e+04    
       fn  3.633e-21    
    total  7.685e-17    




 element     0:m3
       rd  1.973e-23    
       rs  2.970e-21    
       id  1.181e-19    
       rx  812.7667     
       fn  6.903e-23    
    total  1.211e-19    




 element     0:m4
       rd  2.403e-20    
       rs  1.696e-20    
       id  1.032e-16    
       rx  2.402e+04    
       fn  6.031e-20    
    total  1.033e-16    




 element     0:mc0
       rd    0.         
       rs    0.         
       id    0.         
       rx  1.712e-02    
       fn    0.         
    total    0.         




 element     0:mc1
       rd    0.         
       rs    0.         
       id    0.         
       rx    0.4656     
       fn    0.         
    total    0.         




 element     0:mc2
       rd  1.088e-28    
       rs  1.261e-28    
       id  1.108e-25    
       rx    1.7280     
       fn  3.469e-28    
    total  1.114e-25    




 element     0:mc3
       rd  6.814e-28    
       rs    0.         
       id    0.         
       rx    2.1444     
       fn  6.218e-28    
    total  1.351e-27    




 element     0:mcx
       rd  1.500e-26    
       rs  6.616e-26    
       id  3.055e-23    
       rx   21.0318     
       fn  2.468e-26    
    total  3.066e-23    




 element     0:mcz
       rd  1.111e-25    
       rs  2.625e-27    
       id    0.         
       rx   21.0397     
       fn  2.714e-26    
    total  1.408e-25    




 element     0:mt
       rd    0.         
       rs    0.         
       id    0.         
       rx    0.         
       fn    0.         
    total    0.         




 **** total output noise voltage         = 1.806e-16       sq v/hz
                                         = 1.344e-08       v/rt hz
      transfer function value:
        v(2)/vinp                        =   0.2530       
      equivalent input noise at vinp                          
                                         = 5.311e-08       /rt hz



 **** the results of the sqrt of integral (v**2 / freq)
      from fstart upto  6.309e+08      hz. using more freq points
      results in more accurate total noise values.

 **** total output noise voltage   =  2.174e-02       volts
 **** total equivalent input noise =  2.076e-03      



1****** HSPICE -- B-2008.09-SP1 32-BIT (Nov 24 2008) linux ******               
 ******  
 ***myop_2stage_aboveth

  ******  noise analysis tnom=  25.000 temp=  25.000 *****

     frequency = 7.943e+08      hz




 **** mosfet squared noise voltages (sq v/hz)




 element     0:mb
       rd  1.357e-22    
       rs  4.789e-24    
       id  7.920e-20    
       rx  529.0673     
       fn  2.995e-24    
    total  7.935e-20    




 element     0:m1
       rd  8.455e-23    
       rs  6.751e-21    
       id  8.907e-20    
       rx  797.0776     
       fn  3.348e-24    
    total  9.591e-20    




 element     0:m2
       rd  5.538e-20    
       rs  1.251e-20    
       id  4.846e-17    
       rx  1.859e+04    
       fn  1.821e-21    
    total  4.853e-17    




 element     0:m3
       rd  1.276e-23    
       rs  1.912e-21    
       id  4.819e-20    
       rx  519.2558     
       fn  2.317e-23    
    total  5.014e-20    




 element     0:m4
       rd  2.402e-20    
       rs  1.074e-20    
       id  6.507e-17    
       rx  1.908e+04    
       fn  3.128e-20    
    total  6.514e-17    




 element     0:mc0
       rd    0.         
       rs    0.         
       id    0.         
       rx  8.492e-03    
       fn    0.         
    total    0.         




 element     0:mc1
       rd    0.         
       rs    0.         
       id    0.         
       rx    0.2601     
       fn    0.         
    total    0.         




 element     0:mc2
       rd    0.         
       rs    0.         
       id  3.821e-26    
       rx    1.0149     
       fn    0.         
    total  3.841e-26    




 element     0:mc3
       rd  3.708e-28    
       rs    0.         
       id    0.         
       rx    1.2562     
       fn  1.754e-28    
    total  5.674e-28    




 element     0:mcx
       rd  9.106e-27    
       rs  3.491e-26    
       id  1.170e-23    
       rx   13.0161     
       fn  7.508e-27    
    total  1.175e-23    




 element     0:mcz
       rd  6.741e-26    
       rs  1.012e-27    
       id    0.         
       rx   13.0210     
       fn  8.549e-27    
    total  7.697e-26    




 element     0:mt
       rd    0.         
       rs    0.         
       id    0.         
       rx    0.         
       fn    0.         
    total    0.         




 **** total output noise voltage         = 1.139e-16       sq v/hz
                                         = 1.067e-08       v/rt hz
      transfer function value:
        v(2)/vinp                        =   0.2440       
      equivalent input noise at vinp                          
                                         = 4.373e-08       /rt hz



 **** the results of the sqrt of integral (v**2 / freq)
      from fstart upto  7.943e+08      hz. using more freq points
      results in more accurate total noise values.

 **** total output noise voltage   =  2.174e-02       volts
 **** total equivalent input noise =  2.165e-03      



1****** HSPICE -- B-2008.09-SP1 32-BIT (Nov 24 2008) linux ******               
 ******  
 ***myop_2stage_aboveth

  ******  noise analysis tnom=  25.000 temp=  25.000 *****

     frequency = 9.999e+08      hz




 **** mosfet squared noise voltages (sq v/hz)




 element     0:mb
       rd  1.267e-22    
       rs  3.299e-24    
       id  4.666e-20    
       rx  406.0739     
       fn  1.401e-24    
    total  4.679e-20    




 element     0:m1
       rd  5.741e-23    
       rs  6.453e-21    
       id  3.941e-20    
       rx  530.1604     
       fn  1.176e-24    
    total  4.592e-20    




 element     0:m2
       rd  5.539e-20    
       rs  1.011e-20    
       id  3.058e-17    
       rx  1.476e+04    
       fn  9.130e-22    
    total  3.065e-17    




 element     0:m3
       rd  8.367e-24    
       rs  1.250e-21    
       id  1.993e-20    
       rx  333.9459     
       fn  7.879e-24    
    total  2.120e-20    




 element     0:m4
       rd  2.402e-20    
       rs  6.818e-21    
       id  4.105e-17    
       rx  1.515e+04    
       fn  1.623e-20    
    total  4.110e-17    




 element     0:mc0
       rd    0.         
       rs    0.         
       id    0.         
       rx  4.599e-03    
       fn    0.         
    total    0.         




 element     0:mc1
       rd    0.         
       rs    0.         
       id    0.         
       rx    0.1545     
       fn    0.         
    total    0.         




 element     0:mc2
       rd    0.         
       rs    0.         
       id  1.445e-26    
       rx    0.6240     
       fn    0.         
    total  1.453e-26    




 element     0:mc3
       rd  2.214e-28    
       rs    0.         
       id    0.         
       rx    0.7711     
       fn    0.         
    total  2.865e-28    




 element     0:mcx
       rd  5.870e-27    
       rs  2.037e-26    
       id  4.759e-24    
       rx    8.3005     
       fn  2.425e-27    
    total  4.788e-24    




 element     0:mcz
       rd  4.344e-26    
       rs  4.163e-28    
       id    0.         
       rx    8.3036     
       fn  2.858e-27    
    total  4.671e-26    




 element     0:mt
       rd    0.         
       rs    0.         
       id    0.         
       rx    0.         
       fn    0.         
    total    0.         




 **** total output noise voltage         = 7.186e-17       sq v/hz
                                         = 8.477e-09       v/rt hz
      transfer function value:
        v(2)/vinp                        =   0.2382       
      equivalent input noise at vinp                          
                                         = 3.559e-08       /rt hz



 **** the results of the sqrt of integral (v**2 / freq)
      from fstart upto  9.999e+08      hz. using more freq points
      results in more accurate total noise values.

 **** total output noise voltage   =  2.174e-02       volts
 **** total equivalent input noise =  2.238e-03      



 ******  
 ***myop_2stage_aboveth

  ******  ac analysis tnom=  25.000 temp=  25.000 *****
   gain1st=  4.8349E+01    at=  1.2882E+02
               from=  1.0000E-01    to=  1.0000E+09

          ***** job concluded
1****** HSPICE -- B-2008.09-SP1 32-BIT (Nov 24 2008) linux ******               
 ******  
 ***myop_2stage_aboveth

  ******  job statistics summary tnom=  25.000 temp=  25.000 *****

  ******  HSPICE Threads Information  ******
  Command Line Threads Count:                      0
  Available CPU Count:                            12
  Actual Model Evaluation(Load) Threads Count:     1
  Actual Solver Threads Count:                     1


  ******  Circuit Statistics  ******
  # nodes       =      44  # elements   =      29
  # resistors   =       4  # capacitors =       0  # inductors   =       0
  # mutual_inds =       0  # vccs       =       0  # vcvs        =       0
  # cccs        =       0  # ccvs       =       0  # volt_srcs   =      12
  # curr_srcs   =       1  # diodes     =       0  # bjts        =       0
  # jfets       =       0  # mosfets    =      12  # U elements  =       0
  # T elements  =       0  # W elements =       0  # B elements  =       0
  # S elements  =       0  # P elements =       0  # va device   =       0


  ******  Runtime Statistics (seconds)  ******

  analysis           time    # points   tot. iter  conv.iter
  op point           0.00           1          90
  dc sweep           0.02         101         290
  ac analysis        0.31       10001       10001
  readin             0.03
  errchk             0.01
  setup              0.01
  output             0.00


           total memory used          522  kbytes
           total cpu time            0.38 seconds
           total elapsed time        0.62 seconds
           job started at     01:26:56 01/26/2016
           job ended   at     01:26:56 01/26/2016


 Init: hspice initialization file: /usr/cad/synopsys/hspice/cur/hspice/hspice.ini
 lic: Release hspice token(s) 
