Using: /usr/bin/time -p /usr/cad/synopsys/hspice/cur/hspice/linux/hspice My-gm.sp
 ****** HSPICE -- B-2008.09-SP1 32-BIT (Nov 24 2008) linux ******               
  Copyright (C) 2008 Synopsys, Inc. All Rights Reserved.                        
  Unpublished-rights reserved under US copyright laws.
  This program is protected by law and is subject to the 
  terms and conditions of the license agreement from Synopsys.
  Use of this program is your acceptance to be bound by the 
  license agreement. HSPICE is the trademark of Synopsys, Inc.
  Input File: My-gm.sp                                                          
 lic:  
 lic: FLEXlm: v8.5b 
 lic: USER:   m103061608           HOSTNAME: ws34 
 lic: HOSTID: e41f1366b76c         PID:      22429 
 lic: Using FLEXlm license file: 
 lic: 26585@lsnctu 
 lic: Checkout 1 hspice 
 lic: License/Maintenance for hspice will expire on 14-may-2016/2015.06 
 lic: FLOATING license(s) on SERVER lsnctu 
 lic:   
 Init: read install configuration file: /usr/cad/synopsys/hspice/cur/hspice/meta.cfg
 Init: hspice initialization file: /usr/cad/synopsys/hspice/cur/hspice/hspice.ini
 .option runlvl
 .options abstol=1e-7 reltol=1e-7
 + post=1 captab=1 accurate=1 ingold=1 unwrap = 1
 ***netlist***

 *******subckt************
 .subckt gm  vdd vss inp inn io2 io1 ggp ggn vb cc = 0
 .subckt gmx vdd vss in bd gg id sd
 ms  sd  sd bd  bd  pch w = 2u    l = 1u m = 1
 min id  id  sd  in  pch w = 1u    l = 5u m = 1
 mn  id  gg  vss vss nch w = 2u    l = 2u m = 1
 .ends
 *******circuits**********
 *mb  bd  vb  vdd vdd pch w = 3u l = 10u   m = 1
 mbx 1   vb  vdd vdd pch w = 6u l = 10u   m = 1
 mby 2   vb  1   1   pch w = 6u l = 10u   m = 1
 mbz bd  vb  2   2   pch w = 6u l = 10u   m = 1

 x1  vdd vss inp bd ggp idp sdp gmx
 x2  vdd vss inn bd ggn idn sdn gmx
 v0  idp ggp dc = 0
 v1  idn ggn dc = 0
 ********bump*********
 mb1  bd   ggp  bump vss nch w = 4u l = 1u m = 1   *slightly adjust bump centerization
 mb2  bump ggn  vss  vss  nch w = 5u l = 1u m = 1    *lowering length to lower vth. i guess this help to release vds supression
 ******second stage*****
 mo1  io1  ggn  vss  vss  nch w = 2u l = 2u m = 1
 mo2  io2  ggp  vss  vss  nch w = 2u l = 2u m = 1
 mo3a io1a io1a vdd  vdd  pch w = 0.6u l = 5u m = 1
 mo3  io1  io1  io1a io1a pch w = 0.6u l = 5u m = 1
 mo4a io2a io1a vdd  vdd  pch w = 0.6u l = 5u m = 1
 mo4  io2  io1  io2a io2a pch w = 0.6u l = 5u m = 1
 *cc   io1 gnd  500f        *the small fallen peak btw 10k, 100k can be slightly reduced by this
 *rc   ggn xx  1k
 .ends

 xgm vdd vss inp inn io2 io1 ggp ggn vb gm cc = 500f

 *******output load**************
 *e1 idn gnd opamp ref idn
 *vr ref gnd dc = 0.383
 *rl idn gnd 5k
 e1   io2 gnd opamp ref io2
 vr ref gnd dc = cm

 *******input******************
 .param diff = 0 cm = 2
 vinp inp  vss dc = 'cm-diff'   ac = 1
 vinn inn  vss dc = 'cm+diff'

 ********bias**************
 vbias   vb  gnd dc = 2.701
 *vbias2  vb2 gnd dc = 1.4
 vd      vdd gnd dc = 3.3
 vs      vss gnd dc = 0



 *******
 .op

 .alter


 **warning**  the accurate option increases  the cpu time but the results
                are more accurate.
 ***accurate option sets default value of the options: 
 lvltim= 4         dvdt= 3       relvar= 200.00m absvar= 200.00m
     ft= 200.00m relmos=  10.00m
 (used for FFT control ) fft_accurate= 1
1****** HSPICE -- B-2008.09-SP1 32-BIT (Nov 24 2008) linux ******               
 ******  
 *mygm

  ******  circuit name directory
 circuit number to circuit name directory
   number circuitname                     definition         multiplier
        0 main circuit
        1 xgm.                            gm                 1.00 
        2 xgm.x1.                         gmx                1.00 
        3 xgm.x2.                         gmx                1.00 
 

 
      
  Opening plot unit= 15
 file=My-gm.pa0                                                                

1****** HSPICE -- B-2008.09-SP1 32-BIT (Nov 24 2008) linux ******               
 ******  
 *mygm

  ******  operating point information tnom=  25.000 temp=  25.000 *****
 ***** operating point status is all       simulation time is     0.     
    node    =voltage      node    =voltage      node    =voltage

 +0:ggn     =   0.3096  0:ggp     =   0.3096  0:inn     =   2.0000 
 +0:inp     =   2.0000  0:io1     =   2.0056  0:io2     =   2.0000 
 +0:ref     =   2.0000  0:vb      =   2.7010  0:vdd     =   3.3000 
 +0:vss     =   0.      1:1       =   3.2829  1:2       =   3.2568 
 +1:bd      =   1.5931  1:bump    = 1.827e-02 1:idn     =   0.3096 
 +1:idp     =   0.3096  1:io1a    =   2.6528  1:io2a    =   2.6528 
 +1:sdn     =   1.0883  1:sdp     =   1.0883 


 maximum nodal capacitance=   1.836E-13         on node     0:vb              

    nodal  capacitance table 

    node    =    cap      node    =    cap      node    =    cap

 +0:ggn     = 1.947e-14 0:ggp     = 1.801e-14 0:inn     = 8.249e-15
 +0:inp     = 8.249e-15 0:io1     = 1.419e-14 0:io2     = 4.014e-15
 +0:ref     =   0.      0:vb      = 1.836e-13 0:vdd     = 1.072e-13
 +0:vss     = 9.438e-14 1:1       = 9.884e-14 1:2       = 9.584e-14
 +1:bd      = 3.750e-14 1:bump    = 1.345e-14 1:idn     = 1.029e-14
 +1:idp     = 1.029e-14 1:io1a    = 2.126e-14 1:io2a    = 1.109e-14
 +1:sdn     = 8.118e-15 1:sdp     = 8.118e-15

 

 ****  voltage sources

 subckt                                                                    
 element  0:vr       0:vinp     0:vinn     0:vbias    0:vd       0:vs      
  volts      2.0000     2.0000     2.0000     2.7010     3.3000     0.     
  current    0.      -2.602e-12 -2.602e-12    0.      -5.405e-09  5.404e-09
  power      0.       5.205e-12  5.205e-12    0.       1.784e-08    0.     

 subckt   xgm        xgm       
 element  1:v0       1:v1      
  volts      0.         0.     
  current -3.469e-18  3.469e-18
  power      0.         0.     

     total voltage source power dissipation=  1.785e-08       watts



 **** voltage-controlled voltage sources


 subckt             
 element  0:e1      
  volts      2.0000 
  current  5.607e-13





 **** mosfets


 subckt   xgm        xgm        xgm        xgm        xgm        xgm       
 element  1:mbx      1:mby      1:mbz      1:mb1      1:mb2      1:mo1     
 model    0:pch.1    0:pch.1    0:pch.1    0:nch.2    0:nch.2    0:nch.1   
 region       Cutoff     Cutoff     Cutoff     Cutoff     Cutoff     Cutoff
  id      -3.028e-09 -3.028e-09 -3.024e-09  9.466e-10  9.481e-10  1.184e-09
  ibs      6.056e-22  6.056e-22  6.053e-22 -2.977e-15 -1.517e-21 -2.216e-21
  ibd      2.753e-16  3.609e-16  6.227e-16 -1.108e-14 -3.591e-15 -8.235e-14
  vgs       -0.5990    -0.5819    -0.5558     0.2913     0.3096     0.3096 
  vds     -1.713e-02 -2.609e-02   -1.6637     1.5749   1.827e-02    2.0056 
  vbs        0.         0.         0.      -1.827e-02    0.         0.     
  vth       -0.7489    -0.7489    -0.7473     0.5649     0.5648     0.5361 
  vdsat   -5.203e-02 -5.057e-02 -4.903e-02  4.196e-02  4.196e-02  4.144e-02
  vod        0.1499     0.1670     0.1915    -0.2735    -0.2552    -0.2265 
  beta     4.033e-05  4.034e-05  4.037e-05  8.574e-04  1.087e-03  1.936e-04
  gam eff    0.4142     0.4142     0.4142     0.4675     0.4693     0.4466 
  gm       5.294e-08  5.570e-08  6.031e-08  2.703e-08  2.682e-08  3.273e-08
  gds      1.401e-07  7.617e-08  7.235e-11  1.329e-10  3.742e-08  9.861e-11
  gmb      1.375e-08  1.445e-08  1.557e-08  8.528e-09  8.534e-09  1.007e-08
  cdtot    1.051e-14  1.046e-14  6.817e-15  4.803e-15  7.405e-15  2.575e-15
  cgtot    6.070e-14  6.113e-14  6.181e-14  6.264e-15  7.727e-15  5.871e-15
  cstot    1.059e-14  1.059e-14  1.059e-14  6.046e-15  7.445e-15  3.345e-15
  cbtot    7.736e-14  7.775e-14  7.479e-14  1.375e-14  1.839e-14  1.008e-14
  cgs      1.107e-15  1.107e-15  1.107e-15  8.396e-16  1.046e-15  4.270e-16
  cgd      1.107e-15  1.107e-15  1.107e-15  8.396e-16  1.046e-15  4.270e-16



 subckt   xgm        xgm        xgm        xgm        xgm        xgm.x1    
 element  1:mo2      1:mo3a     1:mo3      1:mo4a     1:mo4      2:ms      
 model    0:nch.1    0:pch.7    0:pch.7    0:pch.7    0:pch.7    0:pch.2   
 region       Cutoff     Cutoff     Cutoff     Cutoff     Cutoff     Cutoff
  id       1.184e-09 -1.187e-09 -1.187e-09 -1.187e-09 -1.187e-09 -1.038e-09
  ibs     -2.215e-21  2.751e-22  2.751e-22  2.751e-22  2.751e-22  2.162e-22
  ibd     -7.979e-14  7.991e-17  7.991e-17  7.991e-17  7.991e-17  2.059e-16
  vgs        0.3096    -0.6472    -0.6472    -0.6472    -0.6472    -0.5048 
  vds        2.0000    -0.6472    -0.6472    -0.6472    -0.6528    -0.5048 
  vbs        0.         0.         0.         0.         0.         0.     
  vth        0.5361    -0.8140    -0.8140    -0.8140    -0.8140    -0.7685 
  vdsat    4.144e-02 -4.980e-02 -4.980e-02 -4.980e-02 -4.980e-02 -4.860e-02
  vod       -0.2265     0.1668     0.1668     0.1668     0.1668     0.2636 
  beta     1.936e-04  7.107e-06  7.107e-06  7.107e-06  7.107e-06  1.062e-04
  gam eff    0.4466     0.3359     0.3359     0.3359     0.3359     0.3948 
  gm       3.271e-08  1.955e-08  1.955e-08  1.955e-08  1.955e-08  2.602e-08
  gds      9.826e-11  4.243e-11  4.243e-11  4.243e-11  4.233e-11  2.308e-10
  gmb      1.007e-08  4.946e-09  4.946e-09  4.946e-09  4.946e-09  6.129e-09
  cdtot    2.576e-15  1.440e-15  1.440e-15  1.440e-15  1.438e-15  3.392e-15
  cgtot    5.871e-15  5.087e-15  5.087e-15  5.087e-15  5.087e-15  2.893e-15
  cstot    3.345e-15  1.800e-15  1.800e-15  1.800e-15  1.800e-15  4.078e-15
  cbtot    1.008e-14  7.851e-15  7.851e-15  7.851e-15  7.849e-15  8.862e-15
  cgs      4.270e-16  1.190e-16  1.190e-16  1.190e-16  1.190e-16  3.751e-16
  cgd      4.270e-16  1.190e-16  1.190e-16  1.190e-16  1.190e-16  3.751e-16



 subckt   xgm.x1     xgm.x1     xgm.x2     xgm.x2     xgm.x2    
 element  2:min      2:mn       3:ms       3:min      3:mn      
 model    0:pch.4    0:nch.1    0:pch.2    0:pch.4    0:nch.1   
 region       Cutoff     Cutoff     Cutoff     Cutoff     Cutoff
  id      -1.039e-09  1.041e-09 -1.038e-09 -1.039e-09  1.041e-09
  ibs      1.159e-16 -1.945e-21  2.162e-22  1.159e-16 -1.945e-21
  ibd      1.159e-16 -3.438e-15  2.059e-16  1.159e-16 -3.438e-15
  vgs       -0.7787     0.3096    -0.5048    -0.7787     0.3096 
  vds       -0.7787     0.3096    -0.5048    -0.7787     0.3096 
  vbs        0.9117     0.         0.         0.9117     0.     
  vth       -0.9532     0.5383    -0.7685    -0.9532     0.5383 
  vdsat   -4.966e-02  4.143e-02 -4.860e-02 -4.966e-02  4.143e-02
  vod        0.1744    -0.2287     0.2636     0.1744    -0.2287 
  beta     1.086e-05  1.936e-04  1.062e-04  1.086e-05  1.936e-04
  gam eff    0.3463     0.4466     0.3948     0.3463     0.4466 
  gm       1.876e-08  2.882e-08  2.602e-08  1.876e-08  2.882e-08
  gds      6.190e-11  9.147e-11  2.308e-10  6.190e-11  9.147e-11
  gmb      3.221e-09  8.869e-09  6.129e-09  3.221e-09  8.869e-09
  cdtot    1.574e-15  3.108e-15  3.392e-15  1.574e-15  3.108e-15
  cgtot    5.611e-15  5.871e-15  2.893e-15  5.611e-15  5.871e-15
  cstot    1.833e-15  3.345e-15  4.078e-15  1.833e-15  3.345e-15
  cbtot    8.249e-15  1.062e-14  8.862e-15  8.249e-15  1.062e-14
  cgs      1.922e-16  4.270e-16  3.751e-16  1.922e-16  4.270e-16
  cgd      1.922e-16  4.270e-16  3.751e-16  1.922e-16  4.270e-16




          ***** job concluded
1****** HSPICE -- B-2008.09-SP1 32-BIT (Nov 24 2008) linux ******               
 ******  
 *mygm

  ******  job statistics summary tnom=  25.000 temp=  25.000 *****

  ******  HSPICE Threads Information  ******
  Command Line Threads Count:                      0
  Available CPU Count:                             8
  Actual Model Evaluation(Load) Threads Count:     1
  Actual Solver Threads Count:                     1


  ******  Circuit Statistics  ******
  # nodes       =      55  # elements   =      26
  # resistors   =       0  # capacitors =       0  # inductors   =       0
  # mutual_inds =       0  # vccs       =       0  # vcvs        =       1
  # cccs        =       0  # ccvs       =       0  # volt_srcs   =       8
  # curr_srcs   =       0  # diodes     =       0  # bjts        =       0
  # jfets       =       0  # mosfets    =      17  # U elements  =       0
  # T elements  =       0  # W elements =       0  # B elements  =       0
  # S elements  =       0  # P elements =       0  # va device   =       0


  ******  Runtime Statistics (seconds)  ******

  analysis           time    # points   tot. iter  conv.iter
  op point           0.00           1          31
  readin             0.04
  errchk             0.01
  setup              0.00
  output             0.00


           total memory used          498  kbytes
           total cpu time            0.05 seconds
           total elapsed time        0.21 seconds
           job started at     23:56:46 03/10/2016
           job ended   at     23:56:46 03/10/2016


1****** HSPICE -- B-2008.09-SP1 32-BIT (Nov 24 2008) linux ******               
 ******  
 

  ******    alter processing listing tnom=  25.000 temp=  25.000 *****
 .lib 'test.l' open
     *.dc va -2 2 0.01
     .dc diff -1 1 0.01 *sweep cm 1 2 0.2
     .probe dc i(e1) i(rl) i(mb)
     *+ idiff = par('i(xgm.x1.mn)-i(xgm.x2.mn)') vdiff = par('v(ggp)-v(ggn)') i(mb1)
     *+ i(mo1) i(mo2) i(mo3) i(mo4) i(x1.mn) i(x2.mn)
     *.print dc i(x1.mn) i(x2.mn) i(mb1)
     .meas dc gm_val derivative i(e1) at  0
 .endl

 .alter   *use gm as low pass filter
 $ alter processing continues $


 **warning**  the accurate option increases  the cpu time but the results
                are more accurate.
 ***accurate option sets default value of the options: 
 lvltim= 4         dvdt= 3       relvar= 200.00m absvar= 200.00m
     ft= 200.00m relmos=  10.00m
 (used for FFT control ) fft_accurate= 1
1****** HSPICE -- B-2008.09-SP1 32-BIT (Nov 24 2008) linux ******               
 ******  
 *mygm

  ******  circuit name directory
 circuit number to circuit name directory
   number circuitname                     definition         multiplier
        0 main circuit
        1 xgm.                            gm                 1.00 
        2 xgm.x1.                         gmx                1.00 
        3 xgm.x2.                         gmx                1.00 
 **warning** could not find branch element     0:rl              
      branch - output ignored
 **warning** could not find branch element     0:mb              
      branch - output ignored
 
      
  Opening plot unit= 15
 file=My-gm.pa1                                                                

 ******  
 *mygm

  ******  dc transfer curves tnom=  25.000 temp=  25.000 *****
   gm_val= -2.9092E-09
1****** HSPICE -- B-2008.09-SP1 32-BIT (Nov 24 2008) linux ******               
 ******  
 *mygm

  ******  operating point information tnom=  25.000 temp=  25.000 *****
 ***** operating point status is all       simulation time is     0.     
    node    =voltage      node    =voltage      node    =voltage

 +0:ggn     =   0.3096  0:ggp     =   0.3096  0:inn     =   2.0000 
 +0:inp     =   2.0000  0:io1     =   2.0056  0:io2     =   2.0000 
 +0:ref     =   2.0000  0:vb      =   2.7010  0:vdd     =   3.3000 
 +0:vss     =   0.      1:1       =   3.2829  1:2       =   3.2568 
 +1:bd      =   1.5931  1:bump    = 1.827e-02 1:idn     =   0.3096 
 +1:idp     =   0.3096  1:io1a    =   2.6528  1:io2a    =   2.6528 
 +1:sdn     =   1.0883  1:sdp     =   1.0883 


 maximum nodal capacitance=   1.836E-13         on node     0:vb              

    nodal  capacitance table 

    node    =    cap      node    =    cap      node    =    cap

 +0:ggn     = 1.947e-14 0:ggp     = 1.801e-14 0:inn     = 8.249e-15
 +0:inp     = 8.249e-15 0:io1     = 1.419e-14 0:io2     = 4.014e-15
 +0:ref     =   0.      0:vb      = 1.836e-13 0:vdd     = 1.072e-13
 +0:vss     = 9.438e-14 1:1       = 9.884e-14 1:2       = 9.584e-14
 +1:bd      = 3.750e-14 1:bump    = 1.345e-14 1:idn     = 1.029e-14
 +1:idp     = 1.029e-14 1:io1a    = 2.126e-14 1:io2a    = 1.109e-14
 +1:sdn     = 8.118e-15 1:sdp     = 8.118e-15

 

 ****  voltage sources

 subckt                                                                    
 element  0:vr       0:vinp     0:vinn     0:vbias    0:vd       0:vs      
  volts      2.0000     2.0000     2.0000     2.7010     3.3000     0.     
  current    0.      -2.602e-12 -2.602e-12    0.      -5.405e-09  5.404e-09
  power      0.       5.205e-12  5.205e-12    0.       1.784e-08    0.     

 subckt   xgm        xgm       
 element  1:v0       1:v1      
  volts      0.         0.     
  current -3.469e-18  3.469e-18
  power      0.         0.     

     total voltage source power dissipation=  1.785e-08       watts



 **** voltage-controlled voltage sources


 subckt             
 element  0:e1      
  volts      2.0000 
  current  5.607e-13





 **** mosfets


 subckt   xgm        xgm        xgm        xgm        xgm        xgm       
 element  1:mbx      1:mby      1:mbz      1:mb1      1:mb2      1:mo1     
 model    0:pch.1    0:pch.1    0:pch.1    0:nch.2    0:nch.2    0:nch.1   
 region       Cutoff     Cutoff     Cutoff     Cutoff     Cutoff     Cutoff
  id      -3.028e-09 -3.028e-09 -3.024e-09  9.466e-10  9.481e-10  1.184e-09
  ibs      6.056e-22  6.056e-22  6.053e-22 -2.977e-15 -1.517e-21 -2.216e-21
  ibd      2.753e-16  3.609e-16  6.227e-16 -1.108e-14 -3.591e-15 -8.235e-14
  vgs       -0.5990    -0.5819    -0.5558     0.2913     0.3096     0.3096 
  vds     -1.713e-02 -2.609e-02   -1.6637     1.5749   1.827e-02    2.0056 
  vbs        0.         0.         0.      -1.827e-02    0.         0.     
  vth       -0.7489    -0.7489    -0.7473     0.5649     0.5648     0.5361 
  vdsat   -5.203e-02 -5.057e-02 -4.903e-02  4.196e-02  4.196e-02  4.144e-02
  vod        0.1499     0.1670     0.1915    -0.2735    -0.2552    -0.2265 
  beta     4.033e-05  4.034e-05  4.037e-05  8.574e-04  1.087e-03  1.936e-04
  gam eff    0.4142     0.4142     0.4142     0.4675     0.4693     0.4466 
  gm       5.294e-08  5.570e-08  6.031e-08  2.703e-08  2.682e-08  3.273e-08
  gds      1.401e-07  7.617e-08  7.235e-11  1.329e-10  3.742e-08  9.861e-11
  gmb      1.375e-08  1.445e-08  1.557e-08  8.528e-09  8.534e-09  1.007e-08
  cdtot    1.051e-14  1.046e-14  6.817e-15  4.803e-15  7.405e-15  2.575e-15
  cgtot    6.070e-14  6.113e-14  6.181e-14  6.264e-15  7.727e-15  5.871e-15
  cstot    1.059e-14  1.059e-14  1.059e-14  6.046e-15  7.445e-15  3.345e-15
  cbtot    7.736e-14  7.775e-14  7.479e-14  1.375e-14  1.839e-14  1.008e-14
  cgs      1.107e-15  1.107e-15  1.107e-15  8.396e-16  1.046e-15  4.270e-16
  cgd      1.107e-15  1.107e-15  1.107e-15  8.396e-16  1.046e-15  4.270e-16



 subckt   xgm        xgm        xgm        xgm        xgm        xgm.x1    
 element  1:mo2      1:mo3a     1:mo3      1:mo4a     1:mo4      2:ms      
 model    0:nch.1    0:pch.7    0:pch.7    0:pch.7    0:pch.7    0:pch.2   
 region       Cutoff     Cutoff     Cutoff     Cutoff     Cutoff     Cutoff
  id       1.184e-09 -1.187e-09 -1.187e-09 -1.187e-09 -1.187e-09 -1.038e-09
  ibs     -2.215e-21  2.751e-22  2.751e-22  2.751e-22  2.751e-22  2.162e-22
  ibd     -7.979e-14  7.991e-17  7.991e-17  7.991e-17  7.991e-17  2.059e-16
  vgs        0.3096    -0.6472    -0.6472    -0.6472    -0.6472    -0.5048 
  vds        2.0000    -0.6472    -0.6472    -0.6472    -0.6528    -0.5048 
  vbs        0.         0.         0.         0.         0.         0.     
  vth        0.5361    -0.8140    -0.8140    -0.8140    -0.8140    -0.7685 
  vdsat    4.144e-02 -4.980e-02 -4.980e-02 -4.980e-02 -4.980e-02 -4.860e-02
  vod       -0.2265     0.1668     0.1668     0.1668     0.1668     0.2636 
  beta     1.936e-04  7.107e-06  7.107e-06  7.107e-06  7.107e-06  1.062e-04
  gam eff    0.4466     0.3359     0.3359     0.3359     0.3359     0.3948 
  gm       3.271e-08  1.955e-08  1.955e-08  1.955e-08  1.955e-08  2.602e-08
  gds      9.826e-11  4.243e-11  4.243e-11  4.243e-11  4.233e-11  2.308e-10
  gmb      1.007e-08  4.946e-09  4.946e-09  4.946e-09  4.946e-09  6.129e-09
  cdtot    2.576e-15  1.440e-15  1.440e-15  1.440e-15  1.438e-15  3.392e-15
  cgtot    5.871e-15  5.087e-15  5.087e-15  5.087e-15  5.087e-15  2.893e-15
  cstot    3.345e-15  1.800e-15  1.800e-15  1.800e-15  1.800e-15  4.078e-15
  cbtot    1.008e-14  7.851e-15  7.851e-15  7.851e-15  7.849e-15  8.862e-15
  cgs      4.270e-16  1.190e-16  1.190e-16  1.190e-16  1.190e-16  3.751e-16
  cgd      4.270e-16  1.190e-16  1.190e-16  1.190e-16  1.190e-16  3.751e-16



 subckt   xgm.x1     xgm.x1     xgm.x2     xgm.x2     xgm.x2    
 element  2:min      2:mn       3:ms       3:min      3:mn      
 model    0:pch.4    0:nch.1    0:pch.2    0:pch.4    0:nch.1   
 region       Cutoff     Cutoff     Cutoff     Cutoff     Cutoff
  id      -1.039e-09  1.041e-09 -1.038e-09 -1.039e-09  1.041e-09
  ibs      1.159e-16 -1.945e-21  2.162e-22  1.159e-16 -1.945e-21
  ibd      1.159e-16 -3.438e-15  2.059e-16  1.159e-16 -3.438e-15
  vgs       -0.7787     0.3096    -0.5048    -0.7787     0.3096 
  vds       -0.7787     0.3096    -0.5048    -0.7787     0.3096 
  vbs        0.9117     0.         0.         0.9117     0.     
  vth       -0.9532     0.5383    -0.7685    -0.9532     0.5383 
  vdsat   -4.966e-02  4.143e-02 -4.860e-02 -4.966e-02  4.143e-02
  vod        0.1744    -0.2287     0.2636     0.1744    -0.2287 
  beta     1.086e-05  1.936e-04  1.062e-04  1.086e-05  1.936e-04
  gam eff    0.3463     0.4466     0.3948     0.3463     0.4466 
  gm       1.876e-08  2.882e-08  2.602e-08  1.876e-08  2.882e-08
  gds      6.190e-11  9.147e-11  2.308e-10  6.190e-11  9.147e-11
  gmb      3.221e-09  8.869e-09  6.129e-09  3.221e-09  8.869e-09
  cdtot    1.574e-15  3.108e-15  3.392e-15  1.574e-15  3.108e-15
  cgtot    5.611e-15  5.871e-15  2.893e-15  5.611e-15  5.871e-15
  cstot    1.833e-15  3.345e-15  4.078e-15  1.833e-15  3.345e-15
  cbtot    8.249e-15  1.062e-14  8.862e-15  8.249e-15  1.062e-14
  cgs      1.922e-16  4.270e-16  3.751e-16  1.922e-16  4.270e-16
  cgd      1.922e-16  4.270e-16  3.751e-16  1.922e-16  4.270e-16




          ***** job concluded
1****** HSPICE -- B-2008.09-SP1 32-BIT (Nov 24 2008) linux ******               
 ******  
 *mygm

  ******  job statistics summary tnom=  25.000 temp=  25.000 *****

  ******  HSPICE Threads Information  ******
  Command Line Threads Count:                      0
  Available CPU Count:                             8
  Actual Model Evaluation(Load) Threads Count:     1
  Actual Solver Threads Count:                     1


  ******  Circuit Statistics  ******
  # nodes       =      55  # elements   =      26
  # resistors   =       0  # capacitors =       0  # inductors   =       0
  # mutual_inds =       0  # vccs       =       0  # vcvs        =       1
  # cccs        =       0  # ccvs       =       0  # volt_srcs   =       8
  # curr_srcs   =       0  # diodes     =       0  # bjts        =       0
  # jfets       =       0  # mosfets    =      17  # U elements  =       0
  # T elements  =       0  # W elements =       0  # B elements  =       0
  # S elements  =       0  # P elements =       0  # va device   =       0


  ******  Runtime Statistics (seconds)  ******

  analysis           time    # points   tot. iter  conv.iter
  op point           0.00           1          31
  dc sweep           0.05         201         421
  readin             0.01
  errchk             0.01
  setup              0.00
  output             0.00


           total memory used          501  kbytes
           total cpu time            0.07 seconds
           total elapsed time        0.08 seconds
           job started at     23:56:46 03/10/2016
           job ended   at     23:56:46 03/10/2016


1****** HSPICE -- B-2008.09-SP1 32-BIT (Nov 24 2008) linux ******               
 ******  
    *use gm as low pass filter

  ******    alter processing listing tnom=  25.000 temp=  25.000 *****
 .del lib 'test.l' open
 .lib 'test.l' lp
     .dc diff -1 1 0.01
     .ac dec 1000 1 1g sweep diff -0.2 0.2 0.1

     vinn inn  io2 dc = 0
     cl1 io2 gnd 10p
     e1  gnd gnd opamp gnd gnd
     *vr ref gnd dc = 2
     .probe dc lv18(x2.min) lv19(x2.min)
     .meas ac noiset find onoise at 10
     .probe ac i(cl)
     .noise v(io2) vinp
     .pz v(io2) vinp
 .endl
 *
 .alter
 $ alter processing continues $


 **warning**  the accurate option increases  the cpu time but the results
                are more accurate.
 ***accurate option sets default value of the options: 
 lvltim= 4         dvdt= 3       relvar= 200.00m absvar= 200.00m
     ft= 200.00m relmos=  10.00m
 (used for FFT control ) fft_accurate= 1
1****** HSPICE -- B-2008.09-SP1 32-BIT (Nov 24 2008) linux ******               
 ******  
    *use gm as low pass filter

  ******  circuit name directory
 circuit number to circuit name directory
   number circuitname                     definition         multiplier
        0 main circuit
        1 xgm.                            gm                 1.00 
        2 xgm.x1.                         gmx                1.00 
        3 xgm.x2.                         gmx                1.00 
 **warning** invalid circuit pathname x2
 **warning** invalid circuit pathname x2
 **Warning** pathname identification problem
   with output     0:min              ignored
 **warning** invalid circuit pathname x2
 **warning** invalid circuit pathname x2
 **Warning** pathname identification problem
   with output     0:min              ignored
 **warning** could not find branch element     0:cl              
      branch - output ignored

 **warning** both nodes of vcvs element     0:e1              
             are connected together

 

 **warning** the following singular supplies were terminated to 1 meg resistor 
   supply       node1            node2
  vr                      0:ref              defined in subckt 0                     0:0                defined in subckt 0               
      
  Opening plot unit= 15
 file=My-gm.pa2                                                                


 **diagnostic** dc convergence failure, 
 resetting dcon option to 1 and retrying

 **diagnostic** dc convergence successful
 you can increase the efficiency of the
 operating point calculation by setting dcon= 1
 in the .option statement
1****** HSPICE -- B-2008.09-SP1 32-BIT (Nov 24 2008) linux ******               
 ******  
    *use gm as low pass filter

  ******  operating point information tnom=  25.000 temp=  25.000 *****
 ***** operating point status is all       simulation time is     0.     
    node    =voltage      node    =voltage      node    =voltage

 +0:ggn     =   0.3096  0:ggp     =   0.3096  0:inn     =   1.9987 
 +0:inp     =   2.0000  0:io1     =   2.0055  0:io2     =   1.9987 
 +0:ref     =   2.0000  0:vb      =   2.7010  0:vdd     =   3.3000 
 +0:vss     =   0.      1:1       =   3.2829  1:2       =   3.2568 
 +1:bd      =   1.5930  1:bump    = 1.825e-02 1:idn     =   0.3096 
 +1:idp     =   0.3096  1:io1a    =   2.6527  1:io2a    =   2.6527 
 +1:sdn     =   1.0882  1:sdp     =   1.0883 


 maximum nodal capacitance=   1.000E-11         on node     0:io2             

    nodal  capacitance table 

    node    =    cap      node    =    cap      node    =    cap

 +0:ggn     = 1.947e-14 0:ggp     = 1.801e-14 0:inn     = 8.251e-15
 +0:inp     = 8.249e-15 0:io1     = 1.419e-14 0:io2     = 1.000e-11
 +0:ref     =   0.      0:vb      = 1.836e-13 0:vdd     = 1.072e-13
 +0:vss     = 9.438e-14 1:1       = 9.884e-14 1:2       = 9.584e-14
 +1:bd      = 3.750e-14 1:bump    = 1.345e-14 1:idn     = 1.029e-14
 +1:idp     = 1.029e-14 1:io1a    = 2.126e-14 1:io2a    = 1.109e-14
 +1:sdn     = 8.118e-15 1:sdp     = 8.118e-15

 

 ****  voltage sources

 subckt                                                                    
 element  0:vr       0:vinp     0:vinn     0:vbias    0:vd       0:vs      
  volts      2.0000     2.0000     0.         2.7010     3.3000     0.     
  current -2.000e-06 -2.602e-12 -2.600e-12    0.      -5.407e-09  5.407e-09
  power    4.000e-06  5.205e-12    0.         0.       1.784e-08    0.     

 subckt   xgm        xgm       
 element  1:v0       1:v1      
  volts      0.         0.     
  current  3.469e-18 -3.469e-18
  power      0.         0.     

     total voltage source power dissipation=  4.018e-06       watts




 **** mosfets


 subckt   xgm        xgm        xgm        xgm        xgm        xgm       
 element  1:mbx      1:mby      1:mbz      1:mb1      1:mb2      1:mo1     
 model    0:pch.1    0:pch.1    0:pch.1    0:nch.2    0:nch.2    0:nch.1   
 region       Cutoff     Cutoff     Cutoff     Cutoff     Cutoff     Cutoff
  id      -3.028e-09 -3.028e-09 -3.024e-09  9.465e-10  9.481e-10  1.185e-09
  ibs      6.056e-22  6.056e-22  6.053e-22 -2.975e-15 -1.517e-21 -2.217e-21
  ibd      2.753e-16  3.609e-16  6.227e-16 -1.107e-14 -3.588e-15 -8.237e-14
  vgs       -0.5990    -0.5819    -0.5558     0.2913     0.3096     0.3096 
  vds     -1.713e-02 -2.609e-02   -1.6637     1.5748   1.825e-02    2.0055 
  vbs        0.         0.         0.      -1.825e-02    0.         0.     
  vth       -0.7489    -0.7489    -0.7473     0.5648     0.5648     0.5361 
  vdsat   -5.203e-02 -5.057e-02 -4.903e-02  4.196e-02  4.196e-02  4.144e-02
  vod        0.1499     0.1670     0.1915    -0.2735    -0.2552    -0.2264 
  beta     4.033e-05  4.034e-05  4.037e-05  8.574e-04  1.087e-03  1.936e-04
  gam eff    0.4142     0.4142     0.4142     0.4675     0.4693     0.4466 
  gm       5.294e-08  5.570e-08  6.031e-08  2.703e-08  2.682e-08  3.275e-08
  gds      1.401e-07  7.617e-08  7.235e-11  1.329e-10  3.748e-08  9.868e-11
  gmb      1.375e-08  1.445e-08  1.557e-08  8.528e-09  8.533e-09  1.008e-08
  cdtot    1.051e-14  1.046e-14  6.817e-15  4.803e-15  7.405e-15  2.575e-15
  cgtot    6.070e-14  6.113e-14  6.181e-14  6.264e-15  7.727e-15  5.871e-15
  cstot    1.059e-14  1.059e-14  1.059e-14  6.046e-15  7.445e-15  3.345e-15
  cbtot    7.736e-14  7.775e-14  7.479e-14  1.375e-14  1.839e-14  1.008e-14
  cgs      1.107e-15  1.107e-15  1.107e-15  8.396e-16  1.046e-15  4.270e-16
  cgd      1.107e-15  1.107e-15  1.107e-15  8.396e-16  1.046e-15  4.270e-16



 subckt   xgm        xgm        xgm        xgm        xgm        xgm.x1    
 element  1:mo2      1:mo3a     1:mo3      1:mo4a     1:mo4      2:ms      
 model    0:nch.1    0:pch.7    0:pch.7    0:pch.7    0:pch.7    0:pch.2   
 region       Cutoff     Cutoff     Cutoff     Cutoff     Cutoff     Cutoff
  id       1.183e-09 -1.188e-09 -1.188e-09 -1.188e-09 -1.188e-09 -1.037e-09
  ibs     -2.213e-21  2.753e-22  2.753e-22  2.753e-22  2.753e-22  2.160e-22
  ibd     -7.913e-14  7.991e-17  7.991e-17  7.991e-17  7.991e-17  2.059e-16
  vgs        0.3096    -0.6473    -0.6473    -0.6473    -0.6473    -0.5048 
  vds        1.9987    -0.6473    -0.6473    -0.6473    -0.6540    -0.5048 
  vbs        0.         0.         0.         0.         0.         0.     
  vth        0.5361    -0.8140    -0.8140    -0.8140    -0.8140    -0.7685 
  vdsat    4.144e-02 -4.981e-02 -4.981e-02 -4.981e-02 -4.981e-02 -4.860e-02
  vod       -0.2265     0.1667     0.1667     0.1667     0.1668     0.2637 
  beta     1.936e-04  7.107e-06  7.107e-06  7.107e-06  7.107e-06  1.062e-04
  gam eff    0.4466     0.3359     0.3359     0.3359     0.3359     0.3948 
  gm       3.268e-08  1.956e-08  1.956e-08  1.956e-08  1.956e-08  2.600e-08
  gds      9.810e-11  4.246e-11  4.246e-11  4.246e-11  4.234e-11  2.307e-10
  gmb      1.006e-08  4.950e-09  4.950e-09  4.950e-09  4.950e-09  6.124e-09
  cdtot    2.577e-15  1.440e-15  1.440e-15  1.440e-15  1.438e-15  3.392e-15
  cgtot    5.871e-15  5.087e-15  5.087e-15  5.087e-15  5.087e-15  2.893e-15
  cstot    3.345e-15  1.800e-15  1.800e-15  1.800e-15  1.800e-15  4.078e-15
  cbtot    1.009e-14  7.851e-15  7.851e-15  7.851e-15  7.848e-15  8.862e-15
  cgs      4.270e-16  1.190e-16  1.190e-16  1.190e-16  1.190e-16  3.751e-16
  cgd      4.270e-16  1.190e-16  1.190e-16  1.190e-16  1.190e-16  3.751e-16



 subckt   xgm.x1     xgm.x1     xgm.x2     xgm.x2     xgm.x2    
 element  2:min      2:mn       3:ms       3:min      3:mn      
 model    0:pch.4    0:nch.1    0:pch.2    0:pch.4    0:nch.1   
 region       Cutoff     Cutoff     Cutoff     Cutoff     Cutoff
  id      -1.038e-09  1.040e-09 -1.039e-09 -1.040e-09  1.042e-09
  ibs      1.159e-16 -1.943e-21  2.164e-22  1.159e-16 -1.946e-21
  ibd      1.159e-16 -3.438e-15  2.059e-16  1.159e-16 -3.438e-15
  vgs       -0.7787     0.3096    -0.5049    -0.7786     0.3096 
  vds       -0.7787     0.3096    -0.5049    -0.7786     0.3096 
  vbs        0.9117     0.         0.         0.9105     0.     
  vth       -0.9532     0.5383    -0.7685    -0.9530     0.5383 
  vdsat   -4.966e-02  4.143e-02 -4.860e-02 -4.966e-02  4.143e-02
  vod        0.1745    -0.2288     0.2636     0.1744    -0.2287 
  beta     1.086e-05  1.936e-04  1.062e-04  1.086e-05  1.936e-04
  gam eff    0.3463     0.4466     0.3948     0.3463     0.4466 
  gm       1.875e-08  2.880e-08  2.604e-08  1.878e-08  2.885e-08
  gds      6.186e-11  9.141e-11  2.310e-10  6.194e-11  9.155e-11
  gmb      3.218e-09  8.862e-09  6.133e-09  3.224e-09  8.876e-09
  cdtot    1.574e-15  3.108e-15  3.392e-15  1.574e-15  3.108e-15
  cgtot    5.611e-15  5.871e-15  2.893e-15  5.612e-15  5.871e-15
  cstot    1.833e-15  3.345e-15  4.078e-15  1.833e-15  3.345e-15
  cbtot    8.249e-15  1.062e-14  8.862e-15  8.251e-15  1.062e-14
  cgs      1.922e-16  4.270e-16  3.751e-16  1.922e-16  4.270e-16
  cgd      1.922e-16  4.270e-16  3.751e-16  1.922e-16  4.270e-16



 ***************************************************
   ******   pole/zero analysis  
 **warning** underflow 1 time(s) in pole/zero analysis
 **warning** underflow 1 time(s) in pole/zero analysis
 **warning** underflow 1 time(s) in pole/zero analysis
 **warning** underflow 1 time(s) in pole/zero analysis
 **warning** underflow 1 time(s) in pole/zero analysis
 **warning** underflow 1 time(s) in pole/zero analysis
 **warning** underflow 1 time(s) in pole/zero analysis
 **warning** underflow 1 time(s) in pole/zero analysis
 **warning** underflow 1 time(s) in pole/zero analysis
 **warning** underflow 1 time(s) in pole/zero analysis
 **warning** underflow 1 time(s) in pole/zero analysis
 **warning** underflow 1 time(s) in pole/zero analysis
 **warning** underflow 1 time(s) in pole/zero analysis
 **warning** underflow 1 time(s) in pole/zero analysis
 **warning** underflow 1 time(s) in pole/zero analysis
 **warning** underflow 1 time(s) in pole/zero analysis
 **warning** underflow 1 time(s) in pole/zero analysis
 **warning** underflow 1 time(s) in pole/zero analysis
 **warning** underflow 1 time(s) in pole/zero analysis
 **warning** underflow 1 time(s) in pole/zero analysis
 **warning** underflow 1 time(s) in pole/zero analysis
 **warning** underflow 1 time(s) in pole/zero analysis
 **warning** underflow 1 time(s) in pole/zero analysis
 **warning** underflow 1 time(s) in pole/zero analysis
 **warning** underflow 1 time(s) in pole/zero analysis
 **warning** underflow 1 time(s) in pole/zero analysis
 **warning** underflow 1 time(s) in pole/zero analysis
 **warning** underflow 1 time(s) in pole/zero analysis
 **warning** underflow 1 time(s) in pole/zero analysis
 **warning** underflow 1 time(s) in pole/zero analysis
 **warning** underflow 1 time(s) in pole/zero analysis
 **warning** underflow 1 time(s) in pole/zero analysis
 **warning** underflow 1 time(s) in pole/zero analysis
 **warning** underflow 1 time(s) in pole/zero analysis
 **warning** underflow 1 time(s) in pole/zero analysis
 **warning** underflow 1 time(s) in pole/zero analysis
 **warning** underflow 1 time(s) in pole/zero analysis
 **warning** underflow 1 time(s) in pole/zero analysis
 **warning** underflow 1 time(s) in pole/zero analysis
 **warning** underflow 1 time(s) in pole/zero analysis
 **warning** underflow 1 time(s) in pole/zero analysis
 **warning** underflow 1 time(s) in pole/zero analysis
 **warning** underflow 1 time(s) in pole/zero analysis
 **warning** underflow 1 time(s) in pole/zero analysis
 **warning** underflow 1 time(s) in pole/zero analysis
 **warning** underflow 1 time(s) in pole/zero analysis
 **warning** underflow 1 time(s) in pole/zero analysis
 **warning** underflow 1 time(s) in pole/zero analysis
 **warning** underflow 1 time(s) in pole/zero analysis
 **warning** underflow 1 time(s) in pole/zero analysis
 **warning** underflow 1 time(s) in pole/zero analysis
 **warning** underflow 1 time(s) in pole/zero analysis
 **warning** underflow 1 time(s) in pole/zero analysis
 **warning** underflow 1 time(s) in pole/zero analysis
 **warning** underflow 1 time(s) in pole/zero analysis
 **warning** underflow 1 time(s) in pole/zero analysis
 **warning** underflow 1 time(s) in pole/zero analysis
 **warning** underflow 1 time(s) in pole/zero analysis
 **warning** underflow 1 time(s) in pole/zero analysis
 **warning** underflow 1 time(s) in pole/zero analysis
 **warning** underflow 1 time(s) in pole/zero analysis
 **warning** underflow 1 time(s) in pole/zero analysis
 **warning** underflow 1 time(s) in pole/zero analysis
 **warning** underflow 1 time(s) in pole/zero analysis
 **warning** underflow 1 time(s) in pole/zero analysis
 **warning** underflow 1 time(s) in pole/zero analysis
 **warning** underflow 1 time(s) in pole/zero analysis
 **warning** underflow 1 time(s) in pole/zero analysis
 **warning** underflow 1 time(s) in pole/zero analysis
 **warning** underflow 1 time(s) in pole/zero analysis
 **warning** underflow 1 time(s) in pole/zero analysis
 **warning** underflow 1 time(s) in pole/zero analysis
 **warning** underflow 1 time(s) in pole/zero analysis
 **warning** underflow 1 time(s) in pole/zero analysis
 **warning** underflow 1 time(s) in pole/zero analysis
 **warning** underflow 1 time(s) in pole/zero analysis
 **warning** underflow 1 time(s) in pole/zero analysis
 **warning** underflow 1 time(s) in pole/zero analysis
 **warning** underflow 1 time(s) in pole/zero analysis
 **warning** underflow 1 time(s) in pole/zero analysis
 **warning** underflow 1 time(s) in pole/zero analysis
 **warning** underflow 1 time(s) in pole/zero analysis
 **warning** underflow 1 time(s) in pole/zero analysis
 **warning** underflow 1 time(s) in pole/zero analysis
 **warning** underflow 1 time(s) in pole/zero analysis
 **warning** underflow 1 time(s) in pole/zero analysis
 **warning** underflow 1 time(s) in pole/zero analysis
 **warning** underflow 1 time(s) in pole/zero analysis
 **warning** underflow 1 time(s) in pole/zero analysis
 **warning** underflow 1 time(s) in pole/zero analysis
 **warning** underflow 1 time(s) in pole/zero analysis
 **warning** underflow 1 time(s) in pole/zero analysis
 **warning** underflow 1 time(s) in pole/zero analysis
 **warning** underflow 1 time(s) in pole/zero analysis
 **warning** underflow 1 time(s) in pole/zero analysis
 **warning** underflow 1 time(s) in pole/zero analysis
 **warning** underflow 1 time(s) in pole/zero analysis
 **warning** underflow 1 time(s) in pole/zero analysis
 **warning** underflow 1 time(s) in pole/zero analysis
 **warning** underflow 1 time(s) in pole/zero analysis
 **warning** underflow 1 time(s) in pole/zero analysis
 
 
    input =  0:vinp          output = v(io2)
 
       poles (rad/sec)                 poles ( hertz)
 real            imag            real            imag            
 -155.441        0.              -24.7391        0.              
 -845.545k       0.              -134.573k       0.              
 -1.29775x       0.              -206.544k       0.              
 -1.31117x       725.597k        -208.679k       115.482k        
 -1.31117x       -725.597k       -208.679k       -115.482k       
 -1.36965x       0.              -217.987k       0.              
 -2.59754x       838.748k        -413.411k       133.491k        
 -2.59754x       -838.748k       -413.411k       -133.491k       
 -3.70144x       0.              -589.103k       0.              
 -5.48554x       0.              -873.050k       0.              
 -6.90589x       0.              -1.09911x       0.              
 -7.32622x       0.              -1.16600x       0.              
 
       zeros (rad/sec)                 zeros ( hertz)
 real            imag            real            imag            
 222.783k        0.              35.4570k        0.              
 -1.01061x       0.              -160.843k       0.              
 -1.21161x       724.085k        -192.833k       115.242k        
 -1.21161x       -724.085k       -192.833k       -115.242k       
 -1.29805x       0.              -206.591k       0.              
 -2.59690x       848.168k        -413.310k       134.990k        
 -2.59690x       -848.168k       -413.310k       -134.990k       
 -3.70202x       0.              -589.195k       0.              
 -5.56194x       0.              -885.210k       0.              
 -6.99133x       0.              -1.11271x       0.              
 -7.34286x       0.              -1.16865x       0.              
 33.4358x        0.              5.32147x        0.              
 
  ***** constant factor = 312.909n
1****** HSPICE -- B-2008.09-SP1 32-BIT (Nov 24 2008) linux ******               
 ******  
    *use gm as low pass filter

  ******  ac analysis tnom=  25.000 temp=  25.000 *****
 ***** operating point status is all       simulation time is     0.     

   *** parameter diff             =   -2.000E-01 ***

    node    =voltage      node    =voltage      node    =voltage

 +0:ggn     =   0.3099  0:ggp     =   0.3092  0:inn     =   2.1841 
 +0:inp     =   2.2000  0:io1     =   2.0045  0:io2     =   2.1841 
 +0:ref     =   2.0000  0:vb      =   2.7010  0:vdd     =   3.3000 
 +0:vss     =   0.      1:1       =   3.2829  1:2       =   3.2568 
 +1:bd      =   1.6206  1:bump    = 1.807e-02 1:idn     =   0.3099 
 +1:idp     =   0.3092  1:io1a    =   2.6522  1:io2a    =   2.6527 
 +1:sdn     =   1.1154  1:sdp     =   1.1162 


 maximum nodal capacitance=   1.000E-11         on node     0:io2             

    nodal  capacitance table 

    node    =    cap      node    =    cap      node    =    cap

 +0:ggn     = 1.947e-14 0:ggp     = 1.801e-14 0:inn     = 8.015e-15
 +0:inp     = 7.995e-15 0:io1     = 1.419e-14 0:io2     = 1.000e-11
 +0:ref     =   0.      0:vb      = 1.836e-13 0:vdd     = 1.072e-13
 +0:vss     = 9.434e-14 1:1       = 9.884e-14 1:2       = 9.587e-14
 +1:bd      = 3.752e-14 1:bump    = 1.345e-14 1:idn     = 1.012e-14
 +1:idp     = 1.011e-14 1:io1a    = 2.126e-14 1:io2a    = 1.117e-14
 +1:sdn     = 8.054e-15 1:sdp     = 8.049e-15

 

 ****  voltage sources

 subckt                                                                    
 element  0:vr       0:vinp     0:vinn     0:vbias    0:vd       0:vs      
  volts      2.0000     2.2000     0.         2.7010     3.3000     0.     
  current -2.000e-06 -2.975e-12 -2.943e-12    0.      -5.425e-09  5.425e-09
  power    4.000e-06  6.545e-12    0.         0.       1.790e-08    0.     

 subckt   xgm        xgm       
 element  1:v0       1:v1      
  volts      0.         0.     
  current  3.469e-18    0.     
  power      0.         0.     

     total voltage source power dissipation=  4.018e-06       watts




 **** mosfets


 subckt   xgm        xgm        xgm        xgm        xgm        xgm       
 element  1:mbx      1:mby      1:mbz      1:mb1      1:mb2      1:mo1     
 model    0:pch.1    0:pch.1    0:pch.1    0:nch.2    0:nch.2    0:nch.1   
 region       Cutoff     Cutoff     Cutoff     Cutoff     Cutoff     Cutoff
  id      -3.027e-09 -3.027e-09 -3.024e-09  9.476e-10  9.491e-10  1.195e-09
  ibs      6.054e-22  6.054e-22  6.051e-22 -2.955e-15 -1.518e-21 -2.235e-21
  ibd      2.753e-16  3.608e-16  6.120e-16 -1.262e-14 -3.564e-15 -8.255e-14
  vgs       -0.5990    -0.5819    -0.5558     0.2912     0.3099     0.3099 
  vds     -1.712e-02 -2.607e-02   -1.6362     1.6025   1.807e-02    2.0045 
  vbs        0.         0.         0.      -1.807e-02    0.         0.     
  vth       -0.7489    -0.7489    -0.7473     0.5647     0.5648     0.5361 
  vdsat   -5.203e-02 -5.057e-02 -4.903e-02  4.196e-02  4.196e-02  4.144e-02
  vod        0.1499     0.1670     0.1915    -0.2736    -0.2549    -0.2261 
  beta     4.033e-05  4.034e-05  4.037e-05  8.575e-04  1.087e-03  1.936e-04
  gam eff    0.4142     0.4142     0.4142     0.4675     0.4693     0.4466 
  gm       5.293e-08  5.568e-08  6.029e-08  2.706e-08  2.684e-08  3.300e-08
  gds      1.401e-07  7.622e-08  7.241e-11  1.329e-10  3.805e-08  9.940e-11
  gmb      1.375e-08  1.444e-08  1.557e-08  8.538e-09  8.541e-09  1.015e-08
  cdtot    1.051e-14  1.046e-14  6.848e-15  4.792e-15  7.406e-15  2.576e-15
  cgtot    6.070e-14  6.113e-14  6.181e-14  6.265e-15  7.727e-15  5.871e-15
  cstot    1.059e-14  1.059e-14  1.059e-14  6.046e-15  7.445e-15  3.345e-15
  cbtot    7.736e-14  7.775e-14  7.482e-14  1.374e-14  1.839e-14  1.008e-14
  cgs      1.107e-15  1.107e-15  1.107e-15  8.396e-16  1.046e-15  4.270e-16
  cgd      1.107e-15  1.107e-15  1.107e-15  8.396e-16  1.046e-15  4.270e-16



 subckt   xgm        xgm        xgm        xgm        xgm        xgm.x1    
 element  1:mo2      1:mo3a     1:mo3      1:mo4a     1:mo4      2:ms      
 model    0:nch.1    0:pch.7    0:pch.7    0:pch.7    0:pch.7    0:pch.2   
 region       Cutoff     Cutoff     Cutoff     Cutoff     Cutoff     Cutoff
  id       1.191e-09 -1.198e-09 -1.198e-09 -1.198e-09 -1.198e-09 -1.027e-09
  ibs     -2.229e-21  2.775e-22  2.775e-22  2.775e-22  2.775e-22  2.140e-22
  ibd     -2.112e-13  7.991e-17  7.991e-17  7.991e-17  7.991e-17  2.059e-16
  vgs        0.3092    -0.6478    -0.6478    -0.6478    -0.6482    -0.5044 
  vds        2.1841    -0.6478    -0.6478    -0.6473    -0.4685    -0.5044 
  vbs        0.         0.         0.         0.         0.         0.     
  vth        0.5358    -0.8140    -0.8140    -0.8140    -0.8143    -0.7685 
  vdsat    4.144e-02 -4.985e-02 -4.985e-02 -4.985e-02 -4.986e-02 -4.859e-02
  vod       -0.2266     0.1663     0.1663     0.1663     0.1661     0.2641 
  beta     1.936e-04  7.107e-06  7.107e-06  7.107e-06  7.107e-06  1.062e-04
  gam eff    0.4466     0.3359     0.3359     0.3359     0.3359     0.3948 
  gm       3.292e-08  1.971e-08  1.971e-08  1.971e-08  1.971e-08  2.577e-08
  gds      1.129e-10  4.278e-11  4.278e-11  4.278e-11  4.744e-11  2.286e-10
  gmb      1.013e-08  4.987e-09  4.987e-09  4.987e-09  4.992e-09  6.070e-09
  cdtot    2.546e-15  1.440e-15  1.440e-15  1.440e-15  1.516e-15  3.393e-15
  cgtot    5.872e-15  5.086e-15  5.086e-15  5.086e-15  5.085e-15  2.893e-15
  cstot    3.345e-15  1.800e-15  1.800e-15  1.800e-15  1.800e-15  4.078e-15
  cbtot    1.005e-14  7.850e-15  7.850e-15  7.850e-15  7.926e-15  8.863e-15
  cgs      4.270e-16  1.190e-16  1.190e-16  1.190e-16  1.190e-16  3.751e-16
  cgd      4.270e-16  1.190e-16  1.190e-16  1.190e-16  1.190e-16  3.751e-16



 subckt   xgm.x1     xgm.x1     xgm.x2     xgm.x2     xgm.x2    
 element  2:min      2:mn       3:ms       3:min      3:mn      
 model    0:pch.4    0:nch.1    0:pch.2    0:pch.4    0:nch.1   
 region       Cutoff     Cutoff     Cutoff     Cutoff     Cutoff
  id      -1.029e-09  1.031e-09 -1.047e-09 -1.048e-09  1.050e-09
  ibs      1.159e-16 -1.925e-21  2.180e-22  1.159e-16 -1.962e-21
  ibd      1.159e-16 -3.438e-15  2.059e-16  1.159e-16 -3.438e-15
  vgs       -0.8069     0.3092    -0.5052    -0.8055     0.3099 
  vds       -0.8069     0.3092    -0.5052    -0.8055     0.3099 
  vbs        1.0838     0.         0.         1.0687     0.     
  vth       -0.9789     0.5383    -0.7685    -0.9767     0.5383 
  vdsat   -4.979e-02  4.142e-02 -4.860e-02 -4.983e-02  4.143e-02
  vod        0.1720    -0.2291     0.2633     0.1712    -0.2284 
  beta     1.076e-05  1.936e-04  1.062e-04  1.077e-05  1.936e-04
  gam eff    0.3449     0.4466     0.3948     0.3450     0.4466 
  gm       1.862e-08  2.854e-08  2.624e-08  1.896e-08  2.907e-08
  gds      6.320e-11  9.062e-11  2.327e-10  6.417e-11  9.224e-11
  gmb      3.053e-09  8.784e-09  6.178e-09  3.119e-09  8.944e-09
  cdtot    1.525e-15  3.108e-15  3.392e-15  1.528e-15  3.107e-15
  cgtot    5.476e-15  5.872e-15  2.892e-15  5.486e-15  5.871e-15
  cstot    1.763e-15  3.345e-15  4.078e-15  1.769e-15  3.345e-15
  cbtot    7.995e-15  1.062e-14  8.862e-15  8.015e-15  1.062e-14
  cgs      1.922e-16  4.270e-16  3.751e-16  1.922e-16  4.270e-16
  cgd      1.922e-16  4.270e-16  3.751e-16  1.922e-16  4.270e-16






 **** the results of the sqrt of integral (v**2 / freq)
      using more points from fstart to fstop 
      results in more accurate total noise values.

 **** total output noise voltage   =  8.488e-04       volts
 **** total equivalent input noise =  1.994e-03      
 ******  
    *use gm as low pass filter

  ******  ac analysis tnom=  25.000 temp=  25.000 *****
   noiset=  1.4128E-04

          ***** job concluded
1****** HSPICE -- B-2008.09-SP1 32-BIT (Nov 24 2008) linux ******               
 ******  
    *use gm as low pass filter

  ******  ac analysis tnom=  25.000 temp=  25.000 *****
 ***** operating point status is all       simulation time is     0.     

   *** parameter diff             =   -1.000E-01 ***

    node    =voltage      node    =voltage      node    =voltage

 +0:ggn     =   0.3098  0:ggp     =   0.3094  0:inn     =   2.0918 
 +0:inp     =   2.1000  0:io1     =   2.0050  0:io2     =   2.0918 
 +0:ref     =   2.0000  0:vb      =   2.7010  0:vdd     =   3.3000 
 +0:vss     =   0.      1:1       =   3.2829  1:2       =   3.2568 
 +1:bd      =   1.6070  1:bump    = 1.817e-02 1:idn     =   0.3098 
 +1:idp     =   0.3094  1:io1a    =   2.6525  1:io2a    =   2.6527 
 +1:sdn     =   1.1020  1:sdp     =   1.1024 


 maximum nodal capacitance=   1.000E-11         on node     0:io2             

    nodal  capacitance table 

    node    =    cap      node    =    cap      node    =    cap

 +0:ggn     = 1.947e-14 0:ggp     = 1.801e-14 0:inn     = 8.129e-15
 +0:inp     = 8.118e-15 0:io1     = 1.419e-14 0:io2     = 1.000e-11
 +0:ref     =   0.      0:vb      = 1.836e-13 0:vdd     = 1.072e-13
 +0:vss     = 9.436e-14 1:1       = 9.884e-14 1:2       = 9.585e-14
 +1:bd      = 3.751e-14 1:bump    = 1.345e-14 1:idn     = 1.021e-14
 +1:idp     = 1.020e-14 1:io1a    = 2.126e-14 1:io2a    = 1.113e-14
 +1:sdn     = 8.085e-15 1:sdp     = 8.083e-15

 

 ****  voltage sources

 subckt                                                                    
 element  0:vr       0:vinp     0:vinn     0:vbias    0:vd       0:vs      
  volts      2.0000     2.1000     0.         2.7010     3.3000     0.     
  current -2.000e-06 -2.788e-12 -2.772e-12    0.      -5.415e-09  5.415e-09
  power    4.000e-06  5.856e-12    0.         0.       1.787e-08    0.     

 subckt   xgm        xgm       
 element  1:v0       1:v1      
  volts      0.         0.     
  current  3.469e-18 -3.469e-18
  power      0.         0.     

     total voltage source power dissipation=  4.018e-06       watts




 **** mosfets


 subckt   xgm        xgm        xgm        xgm        xgm        xgm       
 element  1:mbx      1:mby      1:mbz      1:mb1      1:mb2      1:mo1     
 model    0:pch.1    0:pch.1    0:pch.1    0:nch.2    0:nch.2    0:nch.1   
 region       Cutoff     Cutoff     Cutoff     Cutoff     Cutoff     Cutoff
  id      -3.027e-09 -3.027e-09 -3.024e-09  9.471e-10  9.486e-10  1.190e-09
  ibs      6.055e-22  6.055e-22  6.052e-22 -2.965e-15 -1.518e-21 -2.226e-21
  ibd      2.753e-16  3.608e-16  6.170e-16 -1.181e-14 -3.576e-15 -8.246e-14
  vgs       -0.5990    -0.5819    -0.5558     0.2912     0.3098     0.3098 
  vds     -1.712e-02 -2.608e-02   -1.6498     1.5888   1.817e-02    2.0050 
  vbs        0.         0.         0.      -1.817e-02    0.         0.     
  vth       -0.7489    -0.7489    -0.7473     0.5648     0.5648     0.5361 
  vdsat   -5.203e-02 -5.057e-02 -4.903e-02  4.196e-02  4.196e-02  4.144e-02
  vod        0.1499     0.1670     0.1915    -0.2735    -0.2550    -0.2263 
  beta     4.033e-05  4.034e-05  4.037e-05  8.575e-04  1.087e-03  1.936e-04
  gam eff    0.4142     0.4142     0.4142     0.4675     0.4693     0.4466 
  gm       5.294e-08  5.569e-08  6.030e-08  2.705e-08  2.683e-08  3.287e-08
  gds      1.401e-07  7.619e-08  7.238e-11  1.329e-10  3.776e-08  9.903e-11
  gmb      1.375e-08  1.444e-08  1.557e-08  8.533e-09  8.537e-09  1.012e-08
  cdtot    1.051e-14  1.046e-14  6.833e-15  4.797e-15  7.405e-15  2.575e-15
  cgtot    6.070e-14  6.113e-14  6.181e-14  6.265e-15  7.727e-15  5.871e-15
  cstot    1.059e-14  1.059e-14  1.059e-14  6.046e-15  7.445e-15  3.345e-15
  cbtot    7.736e-14  7.775e-14  7.480e-14  1.375e-14  1.839e-14  1.008e-14
  cgs      1.107e-15  1.107e-15  1.107e-15  8.396e-16  1.046e-15  4.270e-16
  cgd      1.107e-15  1.107e-15  1.107e-15  8.396e-16  1.046e-15  4.270e-16



 subckt   xgm        xgm        xgm        xgm        xgm        xgm.x1    
 element  1:mo2      1:mo3a     1:mo3      1:mo4a     1:mo4      2:ms      
 model    0:nch.1    0:pch.7    0:pch.7    0:pch.7    0:pch.7    0:pch.2   
 region       Cutoff     Cutoff     Cutoff     Cutoff     Cutoff     Cutoff
  id       1.187e-09 -1.193e-09 -1.193e-09 -1.193e-09 -1.193e-09 -1.032e-09
  ibs     -2.221e-21  2.764e-22  2.764e-22  2.764e-22  2.764e-22  2.150e-22
  ibd     -1.319e-13  7.991e-17  7.991e-17  7.991e-17  7.991e-17  2.059e-16
  vgs        0.3094    -0.6475    -0.6475    -0.6475    -0.6477    -0.5046 
  vds        2.0918    -0.6475    -0.6475    -0.6473    -0.5609    -0.5046 
  vbs        0.         0.         0.         0.         0.         0.     
  vth        0.5359    -0.8140    -0.8140    -0.8140    -0.8141    -0.7685 
  vdsat    4.144e-02 -4.983e-02 -4.983e-02 -4.983e-02 -4.983e-02 -4.859e-02
  vod       -0.2265     0.1665     0.1665     0.1665     0.1664     0.2639 
  beta     1.936e-04  7.107e-06  7.107e-06  7.107e-06  7.107e-06  1.062e-04
  gam eff    0.4466     0.3359     0.3359     0.3359     0.3359     0.3948 
  gm       3.280e-08  1.963e-08  1.963e-08  1.963e-08  1.964e-08  2.589e-08
  gds      1.044e-10  4.261e-11  4.261e-11  4.262e-11  4.442e-11  2.296e-10
  gmb      1.009e-08  4.968e-09  4.968e-09  4.968e-09  4.970e-09  6.098e-09
  cdtot    2.561e-15  1.440e-15  1.440e-15  1.440e-15  1.475e-15  3.393e-15
  cgtot    5.872e-15  5.086e-15  5.086e-15  5.086e-15  5.086e-15  2.893e-15
  cstot    3.345e-15  1.800e-15  1.800e-15  1.800e-15  1.800e-15  4.078e-15
  cbtot    1.007e-14  7.850e-15  7.850e-15  7.851e-15  7.885e-15  8.863e-15
  cgs      4.270e-16  1.190e-16  1.190e-16  1.190e-16  1.190e-16  3.751e-16
  cgd      4.270e-16  1.190e-16  1.190e-16  1.190e-16  1.190e-16  3.751e-16



 subckt   xgm.x1     xgm.x1     xgm.x2     xgm.x2     xgm.x2    
 element  2:min      2:mn       3:ms       3:min      3:mn      
 model    0:pch.4    0:nch.1    0:pch.2    0:pch.4    0:nch.1   
 region       Cutoff     Cutoff     Cutoff     Cutoff     Cutoff
  id      -1.034e-09  1.036e-09 -1.043e-09 -1.044e-09  1.046e-09
  ibs      1.159e-16 -1.934e-21  2.172e-22  1.159e-16 -1.954e-21
  ibd      1.159e-16 -3.438e-15  2.059e-16  1.159e-16 -3.438e-15
  vgs       -0.7929     0.3094    -0.5050    -0.7922     0.3098 
  vds       -0.7929     0.3094    -0.5050    -0.7922     0.3098 
  vbs        0.9976     0.         0.         0.9898     0.     
  vth       -0.9661     0.5383    -0.7685    -0.9650     0.5383 
  vdsat   -4.973e-02  4.143e-02 -4.860e-02 -4.975e-02  4.143e-02
  vod        0.1732    -0.2289     0.2635     0.1728    -0.2286 
  beta     1.081e-05  1.936e-04  1.062e-04  1.081e-05  1.936e-04
  gam eff    0.3456     0.4466     0.3948     0.3457     0.4466 
  gm       1.869e-08  2.867e-08  2.614e-08  1.886e-08  2.895e-08
  gds      6.253e-11  9.102e-11  2.318e-10  6.304e-11  9.188e-11
  gmb      3.133e-09  8.824e-09  6.155e-09  3.169e-09  8.909e-09
  cdtot    1.549e-15  3.108e-15  3.392e-15  1.551e-15  3.108e-15
  cgtot    5.541e-15  5.872e-15  2.893e-15  5.547e-15  5.871e-15
  cstot    1.797e-15  3.345e-15  4.078e-15  1.800e-15  3.345e-15
  cbtot    8.118e-15  1.062e-14  8.862e-15  8.129e-15  1.062e-14
  cgs      1.922e-16  4.270e-16  3.751e-16  1.922e-16  4.270e-16
  cgd      1.922e-16  4.270e-16  3.751e-16  1.922e-16  4.270e-16






 **** the results of the sqrt of integral (v**2 / freq)
      using more points from fstart to fstop 
      results in more accurate total noise values.

 **** total output noise voltage   =  8.397e-04       volts
 **** total equivalent input noise =  1.955e-03      
 ******  
    *use gm as low pass filter

  ******  ac analysis tnom=  25.000 temp=  25.000 *****
   noiset=  1.3971E-04

          ***** job concluded
1****** HSPICE -- B-2008.09-SP1 32-BIT (Nov 24 2008) linux ******               
 ******  
    *use gm as low pass filter

  ******  ac analysis tnom=  25.000 temp=  25.000 *****
 ***** operating point status is all       simulation time is     0.     

   *** parameter diff             =    0.000E+00 ***

    node    =voltage      node    =voltage      node    =voltage

 +0:ggn     =   0.3096  0:ggp     =   0.3096  0:inn     =   1.9987 
 +0:inp     =   2.0000  0:io1     =   2.0055  0:io2     =   1.9987 
 +0:ref     =   2.0000  0:vb      =   2.7010  0:vdd     =   3.3000 
 +0:vss     =   0.      1:1       =   3.2829  1:2       =   3.2568 
 +1:bd      =   1.5930  1:bump    = 1.825e-02 1:idn     =   0.3096 
 +1:idp     =   0.3096  1:io1a    =   2.6527  1:io2a    =   2.6527 
 +1:sdn     =   1.0882  1:sdp     =   1.0883 


 maximum nodal capacitance=   1.000E-11         on node     0:io2             

    nodal  capacitance table 

    node    =    cap      node    =    cap      node    =    cap

 +0:ggn     = 1.947e-14 0:ggp     = 1.801e-14 0:inn     = 8.251e-15
 +0:inp     = 8.249e-15 0:io1     = 1.419e-14 0:io2     = 1.000e-11
 +0:ref     =   0.      0:vb      = 1.836e-13 0:vdd     = 1.072e-13
 +0:vss     = 9.438e-14 1:1       = 9.884e-14 1:2       = 9.584e-14
 +1:bd      = 3.750e-14 1:bump    = 1.345e-14 1:idn     = 1.029e-14
 +1:idp     = 1.029e-14 1:io1a    = 2.126e-14 1:io2a    = 1.109e-14
 +1:sdn     = 8.118e-15 1:sdp     = 8.118e-15

 

 ****  voltage sources

 subckt                                                                    
 element  0:vr       0:vinp     0:vinn     0:vbias    0:vd       0:vs      
  volts      2.0000     2.0000     0.         2.7010     3.3000     0.     
  current -2.000e-06 -2.602e-12 -2.600e-12    0.      -5.407e-09  5.407e-09
  power    4.000e-06  5.205e-12    0.         0.       1.784e-08    0.     

 subckt   xgm        xgm       
 element  1:v0       1:v1      
  volts      0.         0.     
  current -3.469e-18    0.     
  power      0.         0.     

     total voltage source power dissipation=  4.018e-06       watts




 **** mosfets


 subckt   xgm        xgm        xgm        xgm        xgm        xgm       
 element  1:mbx      1:mby      1:mbz      1:mb1      1:mb2      1:mo1     
 model    0:pch.1    0:pch.1    0:pch.1    0:nch.2    0:nch.2    0:nch.1   
 region       Cutoff     Cutoff     Cutoff     Cutoff     Cutoff     Cutoff
  id      -3.028e-09 -3.028e-09 -3.024e-09  9.465e-10  9.481e-10  1.185e-09
  ibs      6.056e-22  6.056e-22  6.053e-22 -2.975e-15 -1.517e-21 -2.217e-21
  ibd      2.753e-16  3.609e-16  6.227e-16 -1.107e-14 -3.588e-15 -8.237e-14
  vgs       -0.5990    -0.5819    -0.5558     0.2913     0.3096     0.3096 
  vds     -1.713e-02 -2.609e-02   -1.6637     1.5748   1.825e-02    2.0055 
  vbs        0.         0.         0.      -1.825e-02    0.         0.     
  vth       -0.7489    -0.7489    -0.7473     0.5648     0.5648     0.5361 
  vdsat   -5.203e-02 -5.057e-02 -4.903e-02  4.196e-02  4.196e-02  4.144e-02
  vod        0.1499     0.1670     0.1915    -0.2735    -0.2552    -0.2264 
  beta     4.033e-05  4.034e-05  4.037e-05  8.574e-04  1.087e-03  1.936e-04
  gam eff    0.4142     0.4142     0.4142     0.4675     0.4693     0.4466 
  gm       5.294e-08  5.570e-08  6.031e-08  2.703e-08  2.682e-08  3.275e-08
  gds      1.401e-07  7.617e-08  7.235e-11  1.329e-10  3.748e-08  9.868e-11
  gmb      1.375e-08  1.445e-08  1.557e-08  8.528e-09  8.533e-09  1.008e-08
  cdtot    1.051e-14  1.046e-14  6.817e-15  4.803e-15  7.405e-15  2.575e-15
  cgtot    6.070e-14  6.113e-14  6.181e-14  6.264e-15  7.727e-15  5.871e-15
  cstot    1.059e-14  1.059e-14  1.059e-14  6.046e-15  7.445e-15  3.345e-15
  cbtot    7.736e-14  7.775e-14  7.479e-14  1.375e-14  1.839e-14  1.008e-14
  cgs      1.107e-15  1.107e-15  1.107e-15  8.396e-16  1.046e-15  4.270e-16
  cgd      1.107e-15  1.107e-15  1.107e-15  8.396e-16  1.046e-15  4.270e-16



 subckt   xgm        xgm        xgm        xgm        xgm        xgm.x1    
 element  1:mo2      1:mo3a     1:mo3      1:mo4a     1:mo4      2:ms      
 model    0:nch.1    0:pch.7    0:pch.7    0:pch.7    0:pch.7    0:pch.2   
 region       Cutoff     Cutoff     Cutoff     Cutoff     Cutoff     Cutoff
  id       1.183e-09 -1.188e-09 -1.188e-09 -1.188e-09 -1.188e-09 -1.037e-09
  ibs     -2.213e-21  2.753e-22  2.753e-22  2.753e-22  2.753e-22  2.160e-22
  ibd     -7.913e-14  7.991e-17  7.991e-17  7.991e-17  7.991e-17  2.059e-16
  vgs        0.3096    -0.6473    -0.6473    -0.6473    -0.6473    -0.5048 
  vds        1.9987    -0.6473    -0.6473    -0.6473    -0.6540    -0.5048 
  vbs        0.         0.         0.         0.         0.         0.     
  vth        0.5361    -0.8140    -0.8140    -0.8140    -0.8140    -0.7685 
  vdsat    4.144e-02 -4.981e-02 -4.981e-02 -4.981e-02 -4.981e-02 -4.860e-02
  vod       -0.2265     0.1667     0.1667     0.1667     0.1668     0.2637 
  beta     1.936e-04  7.107e-06  7.107e-06  7.107e-06  7.107e-06  1.062e-04
  gam eff    0.4466     0.3359     0.3359     0.3359     0.3359     0.3948 
  gm       3.268e-08  1.956e-08  1.956e-08  1.956e-08  1.956e-08  2.600e-08
  gds      9.810e-11  4.246e-11  4.246e-11  4.246e-11  4.234e-11  2.307e-10
  gmb      1.006e-08  4.950e-09  4.950e-09  4.950e-09  4.950e-09  6.124e-09
  cdtot    2.577e-15  1.440e-15  1.440e-15  1.440e-15  1.438e-15  3.392e-15
  cgtot    5.871e-15  5.087e-15  5.087e-15  5.087e-15  5.087e-15  2.893e-15
  cstot    3.345e-15  1.800e-15  1.800e-15  1.800e-15  1.800e-15  4.078e-15
  cbtot    1.009e-14  7.851e-15  7.851e-15  7.851e-15  7.848e-15  8.862e-15
  cgs      4.270e-16  1.190e-16  1.190e-16  1.190e-16  1.190e-16  3.751e-16
  cgd      4.270e-16  1.190e-16  1.190e-16  1.190e-16  1.190e-16  3.751e-16



 subckt   xgm.x1     xgm.x1     xgm.x2     xgm.x2     xgm.x2    
 element  2:min      2:mn       3:ms       3:min      3:mn      
 model    0:pch.4    0:nch.1    0:pch.2    0:pch.4    0:nch.1   
 region       Cutoff     Cutoff     Cutoff     Cutoff     Cutoff
  id      -1.038e-09  1.040e-09 -1.039e-09 -1.040e-09  1.042e-09
  ibs      1.159e-16 -1.943e-21  2.164e-22  1.159e-16 -1.946e-21
  ibd      1.159e-16 -3.438e-15  2.059e-16  1.159e-16 -3.438e-15
  vgs       -0.7787     0.3096    -0.5049    -0.7786     0.3096 
  vds       -0.7787     0.3096    -0.5049    -0.7786     0.3096 
  vbs        0.9117     0.         0.         0.9105     0.     
  vth       -0.9532     0.5383    -0.7685    -0.9530     0.5383 
  vdsat   -4.966e-02  4.143e-02 -4.860e-02 -4.966e-02  4.143e-02
  vod        0.1745    -0.2288     0.2636     0.1744    -0.2287 
  beta     1.086e-05  1.936e-04  1.062e-04  1.086e-05  1.936e-04
  gam eff    0.3463     0.4466     0.3948     0.3463     0.4466 
  gm       1.875e-08  2.880e-08  2.604e-08  1.878e-08  2.885e-08
  gds      6.186e-11  9.141e-11  2.310e-10  6.194e-11  9.155e-11
  gmb      3.218e-09  8.862e-09  6.133e-09  3.224e-09  8.876e-09
  cdtot    1.574e-15  3.108e-15  3.392e-15  1.574e-15  3.108e-15
  cgtot    5.611e-15  5.871e-15  2.893e-15  5.612e-15  5.871e-15
  cstot    1.833e-15  3.345e-15  4.078e-15  1.833e-15  3.345e-15
  cbtot    8.249e-15  1.062e-14  8.862e-15  8.251e-15  1.062e-14
  cgs      1.922e-16  4.270e-16  3.751e-16  1.922e-16  4.270e-16
  cgd      1.922e-16  4.270e-16  3.751e-16  1.922e-16  4.270e-16






 **** the results of the sqrt of integral (v**2 / freq)
      using more points from fstart to fstop 
      results in more accurate total noise values.

 **** total output noise voltage   =  8.289e-04       volts
 **** total equivalent input noise =  1.914e-03      
 ******  
    *use gm as low pass filter

  ******  ac analysis tnom=  25.000 temp=  25.000 *****
   noiset=  1.3787E-04

          ***** job concluded
1****** HSPICE -- B-2008.09-SP1 32-BIT (Nov 24 2008) linux ******               
 ******  
    *use gm as low pass filter

  ******  ac analysis tnom=  25.000 temp=  25.000 *****
 ***** operating point status is all       simulation time is     0.     

   *** parameter diff             =    1.000E-01 ***

    node    =voltage      node    =voltage      node    =voltage

 +0:ggn     =   0.3095  0:ggp     =   0.3097  0:inn     =   1.9050 
 +0:inp     =   1.9000  0:io1     =   2.0059  0:io2     =   1.9050 
 +0:ref     =   2.0000  0:vb      =   2.7010  0:vdd     =   3.3000 
 +0:vss     =   0.      1:1       =   3.2829  1:2       =   3.2568 
 +1:bd      =   1.5788  1:bump    = 1.833e-02 1:idn     =   0.3095 
 +1:idp     =   0.3097  1:io1a    =   2.6529  1:io2a    =   2.6527 
 +1:sdn     =   1.0741  1:sdp     =   1.0738 


 maximum nodal capacitance=   1.000E-11         on node     0:io2             

    nodal  capacitance table 

    node    =    cap      node    =    cap      node    =    cap

 +0:ggn     = 1.947e-14 0:ggp     = 1.801e-14 0:inn     = 8.382e-15
 +0:inp     = 8.389e-15 0:io1     = 1.419e-14 0:io2     = 1.000e-11
 +0:ref     =   0.      0:vb      = 1.836e-13 0:vdd     = 1.072e-13
 +0:vss     = 9.440e-14 1:1       = 9.884e-14 1:2       = 9.582e-14
 +1:bd      = 3.749e-14 1:bump    = 1.345e-14 1:idn     = 1.039e-14
 +1:idp     = 1.039e-14 1:io1a    = 2.127e-14 1:io2a    = 1.105e-14
 +1:sdn     = 8.154e-15 1:sdp     = 8.156e-15

 

 ****  voltage sources

 subckt                                                                    
 element  0:vr       0:vinp     0:vinn     0:vbias    0:vd       0:vs      
  volts      2.0000     1.9000     0.         2.7010     3.3000     0.     
  current -2.000e-06 -2.417e-12 -2.427e-12    0.      -5.398e-09  5.398e-09
  power    4.000e-06  4.592e-12    0.         0.       1.781e-08    0.     

 subckt   xgm        xgm       
 element  1:v0       1:v1      
  volts      0.         0.     
  current  3.469e-18 -3.469e-18
  power      0.         0.     

     total voltage source power dissipation=  4.018e-06       watts




 **** mosfets


 subckt   xgm        xgm        xgm        xgm        xgm        xgm       
 element  1:mbx      1:mby      1:mbz      1:mb1      1:mb2      1:mo1     
 model    0:pch.1    0:pch.1    0:pch.1    0:nch.2    0:nch.2    0:nch.1   
 region       Cutoff     Cutoff     Cutoff     Cutoff     Cutoff     Cutoff
  id      -3.028e-09 -3.028e-09 -3.025e-09  9.460e-10  9.475e-10  1.181e-09
  ibs      6.057e-22  6.057e-22  6.053e-22 -2.984e-15 -1.516e-21 -2.209e-21
  ibd      2.754e-16  3.610e-16  6.291e-16 -1.040e-14 -3.599e-15 -8.229e-14
  vgs       -0.5990    -0.5819    -0.5558     0.2914     0.3095     0.3095 
  vds     -1.713e-02 -2.609e-02   -1.6780     1.5605   1.833e-02    2.0059 
  vbs        0.         0.         0.      -1.833e-02    0.         0.     
  vth       -0.7489    -0.7489    -0.7473     0.5649     0.5648     0.5361 
  vdsat   -5.203e-02 -5.057e-02 -4.903e-02  4.196e-02  4.196e-02  4.144e-02
  vod        0.1499     0.1670     0.1915    -0.2735    -0.2553    -0.2266 
  beta     4.033e-05  4.034e-05  4.037e-05  8.574e-04  1.087e-03  1.936e-04
  gam eff    0.4142     0.4142     0.4142     0.4675     0.4693     0.4466 
  gm       5.295e-08  5.571e-08  6.031e-08  2.701e-08  2.680e-08  3.264e-08
  gds      1.401e-07  7.614e-08  7.232e-11  1.329e-10  3.723e-08  9.835e-11
  gmb      1.375e-08  1.445e-08  1.557e-08  8.522e-09  8.529e-09  1.004e-08
  cdtot    1.051e-14  1.046e-14  6.801e-15  4.809e-15  7.405e-15  2.575e-15
  cgtot    6.070e-14  6.113e-14  6.181e-14  6.264e-15  7.728e-15  5.871e-15
  cstot    1.059e-14  1.059e-14  1.059e-14  6.046e-15  7.445e-15  3.345e-15
  cbtot    7.736e-14  7.775e-14  7.477e-14  1.376e-14  1.839e-14  1.008e-14
  cgs      1.107e-15  1.107e-15  1.107e-15  8.396e-16  1.046e-15  4.270e-16
  cgd      1.107e-15  1.107e-15  1.107e-15  8.396e-16  1.046e-15  4.270e-16



 subckt   xgm        xgm        xgm        xgm        xgm        xgm.x1    
 element  1:mo2      1:mo3a     1:mo3      1:mo4a     1:mo4      2:ms      
 model    0:nch.1    0:pch.7    0:pch.7    0:pch.7    0:pch.7    0:pch.2   
 region       Cutoff     Cutoff     Cutoff     Cutoff     Cutoff     Cutoff
  id       1.179e-09 -1.184e-09 -1.184e-09 -1.184e-09 -1.184e-09 -1.042e-09
  ibs     -2.205e-21  2.743e-22  2.743e-22  2.743e-22  2.743e-22  2.170e-22
  ibd     -4.569e-14  7.991e-17  7.991e-17  7.991e-17  7.991e-17  2.059e-16
  vgs        0.3097    -0.6471    -0.6471    -0.6471    -0.6468    -0.5050 
  vds        1.9050    -0.6471    -0.6471    -0.6473    -0.7477    -0.5050 
  vbs        0.         0.         0.         0.         0.         0.     
  vth        0.5362    -0.8140    -0.8140    -0.8140    -0.8139    -0.7685 
  vdsat    4.144e-02 -4.979e-02 -4.979e-02 -4.979e-02 -4.978e-02 -4.860e-02
  vod       -0.2265     0.1670     0.1670     0.1670     0.1671     0.2635 
  beta     1.936e-04  7.107e-06  7.107e-06  7.107e-06  7.108e-06  1.062e-04
  gam eff    0.4466     0.3359     0.3359     0.3359     0.3359     0.3948 
  gm       3.257e-08  1.950e-08  1.950e-08  1.950e-08  1.950e-08  2.612e-08
  gds      9.348e-11  4.232e-11  4.232e-11  4.231e-11  4.078e-11  2.316e-10
  gmb      1.002e-08  4.933e-09  4.933e-09  4.933e-09  4.930e-09  6.150e-09
  cdtot    2.593e-15  1.440e-15  1.440e-15  1.440e-15  1.403e-15  3.392e-15
  cgtot    5.871e-15  5.087e-15  5.087e-15  5.087e-15  5.087e-15  2.893e-15
  cstot    3.345e-15  1.800e-15  1.800e-15  1.800e-15  1.800e-15  4.078e-15
  cbtot    1.010e-14  7.851e-15  7.851e-15  7.851e-15  7.814e-15  8.862e-15
  cgs      4.270e-16  1.190e-16  1.190e-16  1.190e-16  1.190e-16  3.751e-16
  cgd      4.270e-16  1.190e-16  1.190e-16  1.190e-16  1.190e-16  3.751e-16



 subckt   xgm.x1     xgm.x1     xgm.x2     xgm.x2     xgm.x2    
 element  2:min      2:mn       3:ms       3:min      3:mn      
 model    0:pch.4    0:nch.1    0:pch.2    0:pch.4    0:nch.1   
 region       Cutoff     Cutoff     Cutoff     Cutoff     Cutoff
  id      -1.043e-09  1.045e-09 -1.035e-09 -1.036e-09  1.038e-09
  ibs      1.159e-16 -1.952e-21  2.156e-22  1.159e-16 -1.939e-21
  ibd      1.159e-16 -3.438e-15  2.059e-16  1.159e-16 -3.438e-15
  vgs       -0.7641     0.3097    -0.5047    -0.7646     0.3095 
  vds       -0.7641     0.3097    -0.5047    -0.7646     0.3095 
  vbs        0.8262     0.         0.         0.8309     0.     
  vth       -0.9399     0.5383    -0.7685    -0.9407     0.5383 
  vdsat   -4.958e-02  4.143e-02 -4.859e-02 -4.957e-02  4.143e-02
  vod        0.1758    -0.2286     0.2637     0.1761    -0.2288 
  beta     1.091e-05  1.936e-04  1.062e-04  1.091e-05  1.936e-04
  gam eff    0.3470     0.4466     0.3948     0.3470     0.4466 
  gm       1.881e-08  2.892e-08  2.596e-08  1.870e-08  2.874e-08
  gds      6.118e-11  9.178e-11  2.302e-10  6.087e-11  9.123e-11
  gmb      3.310e-09  8.899e-09  6.113e-09  3.286e-09  8.844e-09
  cdtot    1.600e-15  3.108e-15  3.392e-15  1.599e-15  3.108e-15
  cgtot    5.687e-15  5.871e-15  2.893e-15  5.683e-15  5.871e-15
  cstot    1.871e-15  3.345e-15  4.078e-15  1.869e-15  3.345e-15
  cbtot    8.389e-15  1.062e-14  8.863e-15  8.382e-15  1.062e-14
  cgs      1.922e-16  4.270e-16  3.751e-16  1.922e-16  4.270e-16
  cgd      1.922e-16  4.270e-16  3.751e-16  1.922e-16  4.270e-16






 **** the results of the sqrt of integral (v**2 / freq)
      using more points from fstart to fstop 
      results in more accurate total noise values.

 **** total output noise voltage   =  8.167e-04       volts
 **** total equivalent input noise =  1.872e-03      
 ******  
    *use gm as low pass filter

  ******  ac analysis tnom=  25.000 temp=  25.000 *****
   noiset=  1.3579E-04

          ***** job concluded
1****** HSPICE -- B-2008.09-SP1 32-BIT (Nov 24 2008) linux ******               
 ******  
    *use gm as low pass filter

  ******  ac analysis tnom=  25.000 temp=  25.000 *****
 ***** operating point status is all       simulation time is     0.     

   *** parameter diff             =    2.000E-01 ***

    node    =voltage      node    =voltage      node    =voltage

 +0:ggn     =   0.3094  0:ggp     =   0.3099  0:inn     =   1.8109 
 +0:inp     =   1.8000  0:io1     =   2.0063  0:io2     =   1.8109 
 +0:ref     =   2.0000  0:vb      =   2.7010  0:vdd     =   3.3000 
 +0:vss     =   0.      1:1       =   3.2829  1:2       =   3.2568 
 +1:bd      =   1.5642  1:bump    = 1.841e-02 1:idn     =   0.3094 
 +1:idp     =   0.3099  1:io1a    =   2.6532  1:io2a    =   2.6527 
 +1:sdn     =   1.0596  1:sdp     =   1.0591 


 maximum nodal capacitance=   1.000E-11         on node     0:io2             

    nodal  capacitance table 

    node    =    cap      node    =    cap      node    =    cap

 +0:ggn     = 1.947e-14 0:ggp     = 1.801e-14 0:inn     = 8.521e-15
 +0:inp     = 8.539e-15 0:io1     = 1.419e-14 0:io2     = 1.000e-11
 +0:ref     =   0.      0:vb      = 1.836e-13 0:vdd     = 1.072e-13
 +0:vss     = 9.442e-14 1:1       = 9.884e-14 1:2       = 9.581e-14
 +1:bd      = 3.748e-14 1:bump    = 1.345e-14 1:idn     = 1.049e-14
 +1:idp     = 1.050e-14 1:io1a    = 2.127e-14 1:io2a    = 1.102e-14
 +1:sdn     = 8.192e-15 1:sdp     = 8.196e-15

 

 ****  voltage sources

 subckt                                                                    
 element  0:vr       0:vinp     0:vinn     0:vbias    0:vd       0:vs      
  volts      2.0000     1.8000     0.         2.7010     3.3000     0.     
  current -2.000e-06 -2.231e-12 -2.253e-12    0.      -5.391e-09  5.391e-09
  power    4.000e-06  4.016e-12    0.         0.       1.779e-08    0.     

 subckt   xgm        xgm       
 element  1:v0       1:v1      
  volts      0.         0.     
  current    0.       3.469e-18
  power      0.         0.     

     total voltage source power dissipation=  4.018e-06       watts




 **** mosfets


 subckt   xgm        xgm        xgm        xgm        xgm        xgm       
 element  1:mbx      1:mby      1:mbz      1:mb1      1:mb2      1:mo1     
 model    0:pch.1    0:pch.1    0:pch.1    0:nch.2    0:nch.2    0:nch.1   
 region       Cutoff     Cutoff     Cutoff     Cutoff     Cutoff     Cutoff
  id      -3.029e-09 -3.029e-09 -3.025e-09  9.454e-10  9.469e-10  1.177e-09
  ibs      6.058e-22  6.058e-22  6.054e-22 -2.992e-15 -1.515e-21 -2.202e-21
  ibd      2.754e-16  3.610e-16  6.363e-16 -9.796e-15 -3.609e-15 -8.221e-14
  vgs       -0.5990    -0.5819    -0.5558     0.2915     0.3094     0.3094 
  vds     -1.713e-02 -2.610e-02   -1.6926     1.5458   1.841e-02    2.0063 
  vbs        0.         0.         0.      -1.841e-02    0.         0.     
  vth       -0.7489    -0.7489    -0.7473     0.5650     0.5648     0.5361 
  vdsat   -5.203e-02 -5.057e-02 -4.903e-02  4.196e-02  4.196e-02  4.144e-02
  vod        0.1499     0.1670     0.1915    -0.2735    -0.2554    -0.2267 
  beta     4.033e-05  4.034e-05  4.037e-05  8.574e-04  1.087e-03  1.936e-04
  gam eff    0.4142     0.4142     0.4142     0.4675     0.4693     0.4466 
  gm       5.296e-08  5.571e-08  6.032e-08  2.700e-08  2.679e-08  3.253e-08
  gds      1.401e-07  7.612e-08  7.229e-11  1.328e-10  3.699e-08  9.804e-11
  gmb      1.375e-08  1.445e-08  1.557e-08  8.516e-09  8.524e-09  1.001e-08
  cdtot    1.051e-14  1.046e-14  6.785e-15  4.814e-15  7.405e-15  2.575e-15
  cgtot    6.070e-14  6.113e-14  6.181e-14  6.264e-15  7.728e-15  5.872e-15
  cstot    1.059e-14  1.059e-14  1.059e-14  6.046e-15  7.445e-15  3.345e-15
  cbtot    7.736e-14  7.775e-14  7.476e-14  1.377e-14  1.839e-14  1.008e-14
  cgs      1.107e-15  1.107e-15  1.107e-15  8.396e-16  1.046e-15  4.270e-16
  cgd      1.107e-15  1.107e-15  1.107e-15  8.396e-16  1.046e-15  4.270e-16



 subckt   xgm        xgm        xgm        xgm        xgm        xgm.x1    
 element  1:mo2      1:mo3a     1:mo3      1:mo4a     1:mo4      2:ms      
 model    0:nch.1    0:pch.7    0:pch.7    0:pch.7    0:pch.7    0:pch.2   
 region       Cutoff     Cutoff     Cutoff     Cutoff     Cutoff     Cutoff
  id       1.175e-09 -1.180e-09 -1.180e-09 -1.180e-09 -1.179e-09 -1.046e-09
  ibs     -2.198e-21  2.734e-22  2.734e-22  2.734e-22  2.733e-22  2.179e-22
  ibd     -2.560e-14  7.991e-17  7.991e-17  7.991e-17  7.991e-17  2.059e-16
  vgs        0.3099    -0.6468    -0.6468    -0.6468    -0.6464    -0.5051 
  vds        1.8109    -0.6468    -0.6468    -0.6473    -0.8419    -0.5051 
  vbs        0.         0.         0.         0.         0.         0.     
  vth        0.5363    -0.8140    -0.8140    -0.8140    -0.8138    -0.7685 
  vdsat    4.144e-02 -4.977e-02 -4.977e-02 -4.977e-02 -4.976e-02 -4.860e-02
  vod       -0.2264     0.1672     0.1672     0.1672     0.1673     0.2633 
  beta     1.936e-04  7.107e-06  7.107e-06  7.107e-06  7.108e-06  1.062e-04
  gam eff    0.4466     0.3359     0.3359     0.3359     0.3359     0.3948 
  gm       3.247e-08  1.943e-08  1.943e-08  1.943e-08  1.943e-08  2.622e-08
  gds      9.026e-11  4.218e-11  4.218e-11  4.217e-11  3.953e-11  2.326e-10
  gmb      9.991e-09  4.917e-09  4.917e-09  4.917e-09  4.911e-09  6.175e-09
  cdtot    2.611e-15  1.440e-15  1.440e-15  1.440e-15  1.370e-15  3.392e-15
  cgtot    5.871e-15  5.087e-15  5.087e-15  5.087e-15  5.088e-15  2.893e-15
  cstot    3.345e-15  1.800e-15  1.800e-15  1.800e-15  1.800e-15  4.078e-15
  cbtot    1.012e-14  7.852e-15  7.852e-15  7.851e-15  7.782e-15  8.862e-15
  cgs      4.270e-16  1.190e-16  1.190e-16  1.190e-16  1.190e-16  3.751e-16
  cgd      4.270e-16  1.190e-16  1.190e-16  1.190e-16  1.190e-16  3.751e-16



 subckt   xgm.x1     xgm.x1     xgm.x2     xgm.x2     xgm.x2    
 element  2:min      2:mn       3:ms       3:min      3:mn      
 model    0:pch.4    0:nch.1    0:pch.2    0:pch.4    0:nch.1   
 region       Cutoff     Cutoff     Cutoff     Cutoff     Cutoff
  id      -1.047e-09  1.049e-09 -1.032e-09 -1.033e-09  1.034e-09
  ibs      1.159e-16 -1.960e-21  2.149e-22  1.159e-16 -1.932e-21
  ibd      1.159e-16 -3.438e-15  2.059e-16  1.159e-16 -3.438e-15
  vgs       -0.7492     0.3099    -0.5046    -0.7503     0.3094 
  vds       -0.7492     0.3099    -0.5046    -0.7503     0.3094 
  vbs        0.7409     0.         0.         0.7512     0.     
  vth       -0.9264     0.5383    -0.7685    -0.9281     0.5383 
  vdsat   -4.950e-02  4.143e-02 -4.859e-02 -4.946e-02  4.143e-02
  vod        0.1772    -0.2285     0.2639     0.1778    -0.2290 
  beta     1.096e-05  1.936e-04  1.062e-04  1.096e-05  1.936e-04
  gam eff    0.3478     0.4466     0.3948     0.3477     0.4466 
  gm       1.887e-08  2.904e-08  2.587e-08  1.862e-08  2.864e-08
  gds      6.052e-11  9.214e-11  2.295e-10  5.983e-11  9.093e-11
  gmb      3.408e-09  8.934e-09  6.094e-09  3.353e-09  8.814e-09
  cdtot    1.629e-15  3.107e-15  3.393e-15  1.625e-15  3.108e-15
  cgtot    5.768e-15  5.871e-15  2.893e-15  5.758e-15  5.872e-15
  cstot    1.911e-15  3.345e-15  4.078e-15  1.906e-15  3.345e-15
  cbtot    8.539e-15  1.062e-14  8.863e-15  8.521e-15  1.062e-14
  cgs      1.922e-16  4.270e-16  3.751e-16  1.922e-16  4.270e-16
  cgd      1.922e-16  4.270e-16  3.751e-16  1.922e-16  4.270e-16






 **** the results of the sqrt of integral (v**2 / freq)
      using more points from fstart to fstop 
      results in more accurate total noise values.

 **** total output noise voltage   =  8.034e-04       volts
 **** total equivalent input noise =  1.829e-03      
 ******  
    *use gm as low pass filter

  ******  ac analysis tnom=  25.000 temp=  25.000 *****
   noiset=  1.3348E-04

   meas_variable = noiset
   mean  = 1.376e-04  varian = 9.579e-12
[...]
 element  2:mo3a     2:mo3      2:mo4a     2:mo4      3:ms       3:min     
 model    0:pch.7    0:pch.7    0:pch.7    0:pch.7    0:pch.2    0:pch.4   
 region       Cutoff     Cutoff     Cutoff     Cutoff     Cutoff     Cutoff
  id      -1.185e-09 -1.185e-09 -1.185e-09 -1.185e-09 -1.042e-09 -1.043e-09
  ibs      2.746e-22  2.746e-22  2.746e-22  2.746e-22  2.170e-22  1.159e-16
  ibd      7.991e-17  7.991e-17  7.991e-17  7.991e-17  2.059e-16  1.159e-16
  vgs       -0.6471    -0.6471    -0.6471    -0.6469    -0.5050    -0.7641 
  vds       -0.6471    -0.6471    -0.6473    -0.7474    -0.5050    -0.7641 
  vbs        0.         0.         0.         0.         0.         0.8262 
  vth       -0.8140    -0.8140    -0.8140    -0.8139    -0.7685    -0.9399 
  vdsat   -4.979e-02 -4.979e-02 -4.979e-02 -4.979e-02 -4.860e-02 -4.958e-02
  vod        0.1669     0.1669     0.1669     0.1670     0.2635     0.1758 
  beta     7.107e-06  7.107e-06  7.107e-06  7.108e-06  1.062e-04  1.091e-05
  gam eff    0.3359     0.3359     0.3359     0.3359     0.3948     0.3470 
  gm       1.952e-08  1.952e-08  1.952e-08  1.951e-08  2.612e-08  1.881e-08
  gds      4.236e-11  4.236e-11  4.236e-11  4.082e-11  2.317e-10  6.119e-11
  gmb      4.938e-09  4.938e-09  4.938e-09  4.935e-09  6.151e-09  3.310e-09
  cdtot    1.440e-15  1.440e-15  1.440e-15  1.403e-15  3.392e-15  1.601e-15
  cgtot    5.087e-15  5.087e-15  5.087e-15  5.087e-15  2.893e-15  5.687e-15
  cstot    1.800e-15  1.800e-15  1.800e-15  1.800e-15  4.078e-15  1.871e-15
  cbtot    7.851e-15  7.851e-15  7.851e-15  7.814e-15  8.862e-15  8.389e-15
  cgs      1.190e-16  1.190e-16  1.190e-16  1.190e-16  3.751e-16  1.922e-16
  cgd      1.190e-16  1.190e-16  1.190e-16  1.190e-16  3.751e-16  1.922e-16



 subckt   xgm.x1     xgm.x2     xgm.x2     xgm.x2     xgm2.x1    xgm2.x1   
 element  3:mn       4:ms       4:min      4:mn       5:ms       5:min     
 model    0:nch.1    0:pch.2    0:pch.4    0:nch.1    0:pch.2    0:pch.4   
 region       Cutoff     Cutoff     Cutoff     Cutoff     Cutoff     Cutoff
  id       1.045e-09 -1.035e-09 -1.036e-09  1.038e-09 -1.041e-09 -1.042e-09
  ibs     -1.952e-21  2.156e-22  1.159e-16 -1.939e-21  2.168e-22  1.159e-16
  ibd     -3.438e-15  2.059e-16  1.159e-16 -3.438e-15  2.059e-16  1.159e-16
  vgs        0.3097    -0.5047    -0.7646     0.3095    -0.5049    -0.7643 
  vds        0.3097    -0.5047    -0.7646     0.3095    -0.5049    -0.7643 
  vbs        0.         0.         0.8311     0.         0.         0.8278 
  vth        0.5383    -0.7685    -0.9407     0.5383    -0.7685    -0.9402 
  vdsat    4.143e-02 -4.859e-02 -4.957e-02  4.143e-02 -4.860e-02 -4.958e-02
  vod       -0.2286     0.2638     0.1761    -0.2288     0.2635     0.1759 
  beta     1.936e-04  1.062e-04  1.091e-05  1.936e-04  1.062e-04  1.091e-05
  gam eff    0.4466     0.3948     0.3470     0.4466     0.3948     0.3470 
  gm       2.892e-08  2.595e-08  1.870e-08  2.874e-08  2.609e-08  1.879e-08
  gds      9.179e-11  2.302e-10  6.086e-11  9.122e-11  2.314e-10  6.114e-11
  gmb      8.900e-09  6.113e-09  3.285e-09  8.843e-09  6.144e-09  3.305e-09
  cdtot    3.108e-15  3.392e-15  1.599e-15  3.108e-15  3.392e-15  1.600e-15
  cgtot    5.871e-15  2.893e-15  5.682e-15  5.871e-15  2.893e-15  5.685e-15
  cstot    3.345e-15  4.078e-15  1.868e-15  3.345e-15  4.078e-15  1.870e-15
  cbtot    1.062e-14  8.863e-15  8.381e-15  1.062e-14  8.862e-15  8.386e-15
  cgs      4.270e-16  3.751e-16  1.922e-16  4.270e-16  3.751e-16  1.922e-16
  cgd      4.270e-16  3.751e-16  1.922e-16  4.270e-16  3.751e-16  1.922e-16



 subckt   xgm2.x1    xgm2.x2    xgm2.x2    xgm2.x2   
 element  5:mn       6:ms       6:min      6:mn      
 model    0:nch.1    0:pch.2    0:pch.4    0:nch.1   
 region       Cutoff     Cutoff     Cutoff     Cutoff
  id       1.044e-09 -1.036e-09 -1.037e-09  1.039e-09
  ibs     -1.950e-21  2.158e-22  1.159e-16 -1.941e-21
  ibd     -3.438e-15  2.059e-16  1.159e-16 -3.438e-15
  vgs        0.3097    -0.5048    -0.7647     0.3095 
  vds        0.3097    -0.5048    -0.7647     0.3095 
  vbs        0.         0.         0.8310     0.     
  vth        0.5383    -0.7685    -0.9407     0.5383 
  vdsat    4.143e-02 -4.860e-02 -4.957e-02  4.143e-02
  vod       -0.2286     0.2637     0.1760    -0.2288 
  beta     1.936e-04  1.062e-04  1.091e-05  1.936e-04
  gam eff    0.4466     0.3948     0.3470     0.4466 
  gm       2.889e-08  2.598e-08  1.872e-08  2.877e-08
  gds      9.169e-11  2.305e-10  6.093e-11  9.132e-11
  gmb      8.890e-09  6.119e-09  3.289e-09  8.853e-09
  cdtot    3.108e-15  3.392e-15  1.599e-15  3.108e-15
  cgtot    5.871e-15  2.893e-15  5.682e-15  5.871e-15
  cstot    3.345e-15  4.078e-15  1.868e-15  3.345e-15
  cbtot    1.062e-14  8.863e-15  8.381e-15  1.062e-14
  cgs      4.270e-16  3.751e-16  1.922e-16  4.270e-16
  cgd      4.270e-16  3.751e-16  1.922e-16  4.270e-16




          ***** job concluded
1****** HSPICE -- B-2008.09-SP1 32-BIT (Nov 24 2008) linux ******               
 ******  
 *mygm

  ******  ac analysis tnom=  25.000 temp=  25.000 *****
 ***** operating point status is all       simulation time is     0.     

   *** parameter diff             =    2.000E-01 ***

    node    =voltage      node    =voltage      node    =voltage

 +0:ggn     =   0.3094  0:ggn2    =   0.3094  0:ggp     =   0.3099 
 +0:ggp2    =   0.3098  0:inn     =   2.2000  0:inp     =   1.8000 
 +0:io1     =   2.0064  0:io12    =   2.0062  0:io2     =   1.8021 
 +0:io22    =   1.8114  0:ref     =   2.0000  0:vb      =   2.7010 
 +0:vdd     =   3.3000  0:vss     =   0.      1:1       =   3.2829 
 +1:2       =   3.2568  1:bd      =   1.5642  1:bump    = 1.842e-02
 +1:idn     =   0.3094  1:idp     =   0.3099  1:io1a    =   2.6532 
 +1:io2a    =   2.6527  1:sdn     =   1.0597  1:sdp     =   1.0591 
 +2:1       =   3.2829  2:2       =   3.2568  2:bd      =   1.5644 
 +2:bump    = 1.838e-02 2:idn     =   0.3094  2:idp     =   0.3098 
 +2:io1a    =   2.6531  2:io2a    =   2.6527  2:sdn     =   1.0598 
 +2:sdp     =   1.0593 


 maximum nodal capacitance=   1.001E-11         on node     0:io2             

    nodal  capacitance table 

    node    =    cap      node    =    cap      node    =    cap

 +0:ggn     = 1.947e-14 0:ggn2    = 1.947e-14 0:ggp     = 1.801e-14
 +0:ggp2    = 1.801e-14 0:inn     =   0.      0:inp     = 8.539e-15
 +0:io1     = 1.419e-14 0:io12    = 1.419e-14 0:io2     = 1.001e-11
 +0:io22    = 5.021e-12 0:ref     =   0.      0:vb      = 3.673e-13
 +0:vdd     = 2.145e-13 0:vss     = 1.888e-13 1:1       = 9.884e-14
 +1:2       = 9.581e-14 1:bd      = 3.748e-14 1:bump    = 1.345e-14
 +1:idn     = 1.049e-14 1:idp     = 1.050e-14 1:io1a    = 2.127e-14
 +1:io2a    = 1.102e-14 1:sdn     = 8.192e-15 1:sdp     = 8.196e-15
 +2:1       = 9.884e-14 2:2       = 9.581e-14 2:bd      = 3.748e-14
 +2:bump    = 1.345e-14 2:idn     = 1.049e-14 2:idp     = 1.050e-14
 +2:io1a    = 2.127e-14 2:io2a    = 1.102e-14 2:sdn     = 8.191e-15
 +2:sdp     = 8.195e-15

 

 ****  voltage sources

 subckt                                                                    
 element  0:vr       0:vinp     0:vinn     0:vbias    0:vd       0:vs      
  volts      2.0000     1.8000     2.2000     2.7010     3.3000     0.     
  current -2.000e-06 -2.231e-12 -2.200e-06    0.      -1.078e-08  1.078e-08
  power    4.000e-06  4.016e-12  4.840e-06    0.       3.558e-08    0.     

 subckt   xgm        xgm        xgm2       xgm2      
 element  1:v0       1:v1       2:v0       2:v1      
  volts      0.         0.         0.         0.     
  current    0.         0.         0.      -3.469e-18
  power      0.         0.         0.         0.     

     total voltage source power dissipation=  8.876e-06       watts




 **** mosfets


 subckt   xgm        xgm        xgm        xgm        xgm        xgm       
 element  1:mbx      1:mby      1:mbz      1:mb1      1:mb2      1:mo1     
 model    0:pch.1    0:pch.1    0:pch.1    0:nch.2    0:nch.2    0:nch.1   
 region       Cutoff     Cutoff     Cutoff     Cutoff     Cutoff     Cutoff
  id      -3.029e-09 -3.029e-09 -3.025e-09  9.454e-10  9.469e-10  1.176e-09
  ibs      6.058e-22  6.058e-22  6.054e-22 -2.993e-15 -1.515e-21 -2.201e-21
  ibd      2.754e-16  3.610e-16  6.362e-16 -9.797e-15 -3.610e-15 -8.220e-14
  vgs       -0.5990    -0.5819    -0.5558     0.2915     0.3094     0.3094 
  vds     -1.713e-02 -2.610e-02   -1.6925     1.5458   1.842e-02    2.0064 
  vbs        0.         0.         0.      -1.842e-02    0.         0.     
  vth       -0.7489    -0.7489    -0.7473     0.5650     0.5648     0.5361 
  vdsat   -5.203e-02 -5.057e-02 -4.903e-02  4.196e-02  4.196e-02  4.144e-02
  vod        0.1499     0.1670     0.1915    -0.2735    -0.2555    -0.2267 
  beta     4.033e-05  4.034e-05  4.037e-05  8.574e-04  1.087e-03  1.936e-04
  gam eff    0.4142     0.4142     0.4142     0.4675     0.4693     0.4466 
  gm       5.296e-08  5.571e-08  6.032e-08  2.700e-08  2.679e-08  3.251e-08
  gds      1.401e-07  7.612e-08  7.229e-11  1.329e-10  3.696e-08  9.800e-11
  gmb      1.375e-08  1.445e-08  1.557e-08  8.516e-09  8.524e-09  1.001e-08
  cdtot    1.051e-14  1.046e-14  6.785e-15  4.814e-15  7.405e-15  2.575e-15
  cgtot    6.070e-14  6.113e-14  6.181e-14  6.264e-15  7.728e-15  5.872e-15
  cstot    1.059e-14  1.059e-14  1.059e-14  6.046e-15  7.445e-15  3.345e-15
  cbtot    7.736e-14  7.775e-14  7.476e-14  1.377e-14  1.839e-14  1.008e-14
  cgs      1.107e-15  1.107e-15  1.107e-15  8.396e-16  1.046e-15  4.270e-16
  cgd      1.107e-15  1.107e-15  1.107e-15  8.396e-16  1.046e-15  4.270e-16



 subckt   xgm        xgm        xgm        xgm        xgm        xgm2      
 element  1:mo2      1:mo3a     1:mo3      1:mo4a     1:mo4      2:mbx     
 model    0:nch.1    0:pch.7    0:pch.7    0:pch.7    0:pch.7    0:pch.1   
 region       Cutoff     Cutoff     Cutoff     Cutoff     Cutoff     Cutoff
  id       1.175e-09 -1.179e-09 -1.179e-09 -1.179e-09 -1.179e-09 -3.029e-09
  ibs     -2.197e-21  2.733e-22  2.733e-22  2.733e-22  2.732e-22  6.058e-22
  ibd     -2.423e-14  7.991e-17  7.991e-17  7.991e-17  7.991e-17  2.754e-16
  vgs        0.3099    -0.6468    -0.6468    -0.6468    -0.6464    -0.5990 
  vds        1.8021    -0.6468    -0.6468    -0.6473    -0.8507  -1.713e-02
  vbs        0.         0.         0.         0.         0.         0.     
  vth        0.5363    -0.8140    -0.8140    -0.8140    -0.8137    -0.7489 
  vdsat    4.144e-02 -4.977e-02 -4.977e-02 -4.977e-02 -4.976e-02 -5.203e-02
  vod       -0.2264     0.1672     0.1672     0.1672     0.1674     0.1499 
  beta     1.936e-04  7.107e-06  7.107e-06  7.107e-06  7.108e-06  4.033e-05
  gam eff    0.4466     0.3359     0.3359     0.3359     0.3359     0.4142 
  gm       3.246e-08  1.943e-08  1.943e-08  1.943e-08  1.942e-08  5.296e-08
  gds      9.002e-11  4.217e-11  4.217e-11  4.216e-11  3.942e-11  1.401e-07
  gmb      9.987e-09  4.915e-09  4.915e-09  4.915e-09  4.909e-09  1.375e-08
  cdtot    2.613e-15  1.440e-15  1.440e-15  1.440e-15  1.367e-15  1.051e-14
  cgtot    5.871e-15  5.087e-15  5.087e-15  5.087e-15  5.088e-15  6.070e-14
  cstot    3.345e-15  1.800e-15  1.800e-15  1.800e-15  1.800e-15  1.059e-14
  cbtot    1.012e-14  7.852e-15  7.852e-15  7.851e-15  7.779e-15  7.736e-14
  cgs      4.270e-16  1.190e-16  1.190e-16  1.190e-16  1.190e-16  1.107e-15
  cgd      4.270e-16  1.190e-16  1.190e-16  1.190e-16  1.190e-16  1.107e-15



 subckt   xgm2       xgm2       xgm2       xgm2       xgm2       xgm2      
 element  2:mby      2:mbz      2:mb1      2:mb2      2:mo1      2:mo2     
 model    0:pch.1    0:pch.1    0:nch.2    0:nch.2    0:nch.1    0:nch.1   
 region       Cutoff     Cutoff     Cutoff     Cutoff     Cutoff     Cutoff
  id      -3.029e-09 -3.025e-09  9.454e-10  9.469e-10  1.178e-09  1.174e-09
  ibs      6.058e-22  6.054e-22 -2.989e-15 -1.515e-21 -2.204e-21 -2.196e-21
  ibd      3.610e-16  6.361e-16 -9.805e-15 -3.605e-15 -8.223e-14 -2.567e-14
  vgs       -0.5819    -0.5558     0.2915     0.3094     0.3094     0.3098 
  vds     -2.610e-02   -1.6924     1.5460   1.838e-02    2.0062     1.8114 
  vbs        0.         0.      -1.838e-02    0.         0.         0.     
  vth       -0.7489    -0.7473     0.5649     0.5648     0.5361     0.5363 
  vdsat   -5.057e-02 -4.903e-02  4.196e-02  4.196e-02  4.144e-02  4.144e-02
  vod        0.1670     0.1915    -0.2735    -0.2554    -0.2267    -0.2265 
  beta     4.034e-05  4.037e-05  8.574e-04  1.087e-03  1.936e-04  1.936e-04
  gam eff    0.4142     0.4142     0.4675     0.4693     0.4466     0.4466 
  gm       5.571e-08  6.032e-08  2.700e-08  2.679e-08  3.256e-08  3.244e-08
  gds      7.612e-08  7.229e-11  1.328e-10  3.706e-08  9.813e-11  9.019e-11
  gmb      1.445e-08  1.557e-08  8.516e-09  8.524e-09  1.002e-08  9.982e-09
  cdtot    1.046e-14  6.785e-15  4.814e-15  7.405e-15  2.575e-15  2.611e-15
  cgtot    6.113e-14  6.181e-14  6.264e-15  7.728e-15  5.872e-15  5.871e-15
  cstot    1.059e-14  1.059e-14  6.046e-15  7.445e-15  3.345e-15  3.345e-15
  cbtot    7.775e-14  7.476e-14  1.377e-14  1.839e-14  1.008e-14  1.012e-14
  cgs      1.107e-15  1.107e-15  8.396e-16  1.046e-15  4.270e-16  4.270e-16
  cgd      1.107e-15  1.107e-15  8.396e-16  1.046e-15  4.270e-16  4.270e-16



 subckt   xgm2       xgm2       xgm2       xgm2       xgm.x1     xgm.x1    
 element  2:mo3a     2:mo3      2:mo4a     2:mo4      3:ms       3:min     
 model    0:pch.7    0:pch.7    0:pch.7    0:pch.7    0:pch.2    0:pch.4   
 region       Cutoff     Cutoff     Cutoff     Cutoff     Cutoff     Cutoff
  id      -1.181e-09 -1.181e-09 -1.181e-09 -1.180e-09 -1.047e-09 -1.048e-09
  ibs      2.736e-22  2.736e-22  2.736e-22  2.736e-22  2.180e-22  1.159e-16
  ibd      7.991e-17  7.991e-17  7.991e-17  7.991e-17  2.059e-16  1.159e-16
  vgs       -0.6469    -0.6469    -0.6469    -0.6465    -0.5052    -0.7492 
  vds       -0.6469    -0.6469    -0.6473    -0.8413    -0.5052    -0.7492 
  vbs        0.         0.         0.         0.         0.         0.7409 
  vth       -0.8140    -0.8140    -0.8140    -0.8138    -0.7685    -0.9264 
  vdsat   -4.978e-02 -4.978e-02 -4.978e-02 -4.976e-02 -4.860e-02 -4.950e-02
  vod        0.1671     0.1671     0.1671     0.1673     0.2633     0.1772 
  beta     7.107e-06  7.107e-06  7.107e-06  7.108e-06  1.062e-04  1.096e-05
  gam eff    0.3359     0.3359     0.3359     0.3359     0.3948     0.3478 
  gm       1.945e-08  1.945e-08  1.945e-08  1.945e-08  2.623e-08  1.888e-08
  gds      4.222e-11  4.222e-11  4.221e-11  3.957e-11  2.327e-10  6.054e-11
  gmb      4.922e-09  4.922e-09  4.922e-09  4.916e-09  6.177e-09  3.409e-09
  cdtot    1.440e-15  1.440e-15  1.440e-15  1.370e-15  3.392e-15  1.629e-15
  cgtot    5.087e-15  5.087e-15  5.087e-15  5.088e-15  2.892e-15  5.768e-15
  cstot    1.800e-15  1.800e-15  1.800e-15  1.800e-15  4.078e-15  1.911e-15
  cbtot    7.852e-15  7.852e-15  7.851e-15  7.782e-15  8.862e-15  8.539e-15
  cgs      1.190e-16  1.190e-16  1.190e-16  1.190e-16  3.751e-16  1.922e-16
  cgd      1.190e-16  1.190e-16  1.190e-16  1.190e-16  3.751e-16  1.922e-16



 subckt   xgm.x1     xgm.x2     xgm.x2     xgm.x2     xgm2.x1    xgm2.x1   
 element  3:mn       4:ms       4:min      4:mn       5:ms       5:min     
 model    0:nch.1    0:pch.2    0:pch.4    0:nch.1    0:pch.2    0:pch.4   
 region       Cutoff     Cutoff     Cutoff     Cutoff     Cutoff     Cutoff
  id       1.049e-09 -1.031e-09 -1.032e-09  1.034e-09 -1.045e-09 -1.046e-09
  ibs     -1.960e-21  2.148e-22  1.159e-16 -1.932e-21  2.177e-22  1.159e-16
  ibd     -3.438e-15  2.059e-16  1.159e-16 -3.438e-15  2.059e-16  1.159e-16
  vgs        0.3099    -0.5046    -0.7503     0.3094    -0.5051    -0.7495 
  vds        0.3099    -0.5046    -0.7503     0.3094    -0.5051    -0.7495 
  vbs        0.         0.         0.7517     0.         0.         0.7428 
  vth        0.5383    -0.7685    -0.9281     0.5383    -0.7685    -0.9267 
  vdsat    4.143e-02 -4.859e-02 -4.946e-02  4.143e-02 -4.860e-02 -4.949e-02
  vod       -0.2284     0.2639     0.1778    -0.2290     0.2634     0.1772 
  beta     1.936e-04  1.062e-04  1.096e-05  1.936e-04  1.062e-04  1.096e-05
  gam eff    0.4466     0.3948     0.3477     0.4466     0.3948     0.3477 
  gm       2.905e-08  2.587e-08  1.862e-08  2.863e-08  2.620e-08  1.885e-08
  gds      9.217e-11  2.294e-10  5.982e-11  9.089e-11  2.324e-10  6.048e-11
  gmb      8.937e-09  6.092e-09  3.351e-09  8.811e-09  6.169e-09  3.403e-09
  cdtot    3.107e-15  3.393e-15  1.625e-15  3.108e-15  3.392e-15  1.628e-15
  cgtot    5.871e-15  2.893e-15  5.758e-15  5.872e-15  2.893e-15  5.766e-15
  cstot    3.345e-15  4.078e-15  1.906e-15  3.345e-15  4.078e-15  1.910e-15
  cbtot    1.062e-14  8.863e-15  8.521e-15  1.062e-14  8.862e-15  8.536e-15
  cgs      4.270e-16  3.751e-16  1.922e-16  4.270e-16  3.751e-16  1.922e-16
  cgd      4.270e-16  3.751e-16  1.922e-16  4.270e-16  3.751e-16  1.922e-16



 subckt   xgm2.x1    xgm2.x2    xgm2.x2    xgm2.x2   
 element  5:mn       6:ms       6:min      6:mn      
 model    0:nch.1    0:pch.2    0:pch.4    0:nch.1   
 region       Cutoff     Cutoff     Cutoff     Cutoff
  id       1.048e-09 -1.033e-09 -1.034e-09  1.035e-09
  ibs     -1.958e-21  2.151e-22  1.159e-16 -1.934e-21
  ibd     -3.438e-15  2.059e-16  1.159e-16 -3.438e-15
  vgs        0.3098    -0.5046    -0.7504     0.3094 
  vds        0.3098    -0.5046    -0.7504     0.3094 
  vbs        0.         0.         0.7516     0.     
  vth        0.5383    -0.7685    -0.9281     0.5383 
  vdsat    4.143e-02 -4.859e-02 -4.947e-02  4.143e-02
  vod       -0.2285     0.2638     0.1777    -0.2289 
  beta     1.936e-04  1.062e-04  1.096e-05  1.936e-04
  gam eff    0.4466     0.3948     0.3477     0.4466 
  gm       2.901e-08  2.590e-08  1.864e-08  2.867e-08
  gds      9.205e-11  2.297e-10  5.989e-11  9.101e-11
  gmb      8.926e-09  6.100e-09  3.356e-09  8.823e-09
  cdtot    3.107e-15  3.392e-15  1.625e-15  3.108e-15
  cgtot    5.871e-15  2.893e-15  5.758e-15  5.872e-15
  cstot    3.345e-15  4.078e-15  1.906e-15  3.345e-15
  cbtot    1.062e-14  8.863e-15  8.521e-15  1.062e-14
  cgs      4.270e-16  3.751e-16  1.922e-16  4.270e-16
  cgd      4.270e-16  3.751e-16  1.922e-16  4.270e-16



 

          ***** job concluded
1****** HSPICE -- B-2008.09-SP1 32-BIT (Nov 24 2008) linux ******               
 ******  
 *mygm

  ******  job statistics summary tnom=  25.000 temp=  25.000 *****

  ******  HSPICE Threads Information  ******
  Command Line Threads Count:                      0
  Available CPU Count:                             8
  Actual Model Evaluation(Load) Threads Count:     1
  Actual Solver Threads Count:                     1


  ******  Circuit Statistics  ******
  # nodes       =     103  # elements   =      48
  # resistors   =       2  # capacitors =       2  # inductors   =       0
  # mutual_inds =       0  # vccs       =       0  # vcvs        =       0
  # cccs        =       0  # ccvs       =       0  # volt_srcs   =      10
  # curr_srcs   =       0  # diodes     =       0  # bjts        =       0
  # jfets       =       0  # mosfets    =      34  # U elements  =       0
  # T elements  =       0  # W elements =       0  # B elements  =       0
  # S elements  =       0  # P elements =       0  # va device   =       0


  ******  Runtime Statistics (seconds)  ******

  analysis           time    # points   tot. iter  conv.iter
  op point           0.06           1          46
  dc sweep           0.08         201         451
  ac analysis        1.38       45005       45005
  readin             0.01
  errchk             0.02
  setup              0.00
  output             0.00


           total memory used          689  kbytes
           total cpu time            1.54 seconds
           total elapsed time        2.35 seconds
           job started at     23:56:46 03/10/2016
           job ended   at     23:56:51 03/10/2016


 Init: hspice initialization file: /usr/cad/synopsys/hspice/cur/hspice/hspice.ini
 lic: Release hspice token(s) 
