Using: /usr/bin/time -p /usr/cad/synopsys/hspice/cur/hspice/linux/hspice new_loopTest.sp
 ****** HSPICE -- B-2008.09-SP1 32-BIT (Nov 24 2008) linux ******               
  Copyright (C) 2008 Synopsys, Inc. All Rights Reserved.                        
  Unpublished-rights reserved under US copyright laws.
  This program is protected by law and is subject to the 
  terms and conditions of the license agreement from Synopsys.
  Use of this program is your acceptance to be bound by the 
  license agreement. HSPICE is the trademark of Synopsys, Inc.
  Input File: new_loopTest.sp                                                   
 lic:  
 lic: FLEXlm: v8.5b 
 lic: USER:   m103061608           HOSTNAME: ws42 
 lic: HOSTID: e41f13bfda98         PID:      24982 
 lic: Using FLEXlm license file: 
 lic: 26585@lsnctu 
 lic: Checkout 1 hspice 
 lic: License/Maintenance for hspice will expire on 14-may-2016/2015.06 
 lic: FLOATING license(s) on SERVER lsnctu 
 lic:   
 Init: read install configuration file: /usr/cad/synopsys/hspice/cur/hspice/meta.cfg
 Init: hspice initialization file: /usr/cad/synopsys/hspice/cur/hspice/hspice.ini
 .option runlvl
 .options abstol=1e-7 reltol=1e-7
 + post=1 captab=1 accurate=1 ingold=2 converge=0 dcon=2 unwrap=1

 ***subckt***
 ******ienlarge******
 .subckt ien vdd vss vinn vinp vout cz eb
 mb	b	cz	 vdd vdd pch w = 12u  l = 5u  m = 1
 m1	von	vinp b	 b	 pch w = 6u   l = 5u  m = 1
 m2	vop	vinn b	 b	 pch w = 6u   l = 5u  m = 1
 m3	von	von	 vss vss nch w = 3u   l = 5u  m = 1
 m4	vop	von	 vss vss nch w = 3u   l = 5u    m = 1

 me1p vinp vop vdd vdd pch w = 10u l = 0.4u
 me2p vout vop vdd vdd pch w = 10u l = 0.4u m = 10
 me1n vinp eb vss vss nch  w = 2u l = 0.4u            *decide by noise:
 me2n vout eb vss vss nch  w = 2u l = 0.4u m = 10    *id ~45n, in~0.8n
 *rc  xx   vop 100k
 cc  vinp vop  1p
 *ct  vout gnd 300f
 .ends
 ******tr******
 .subckt tr vdd vss vinp vinn vop cz rld=20k
 mb	b	cz	 vdd vdd pch w = 5u  l = 5u  m = 1
 m1	1	vinn b	 b	 pch w = 3u   l = 5u  m = 2
 m2	2	vinp b	 b	 pch w = 3u   l = 5u  m = 2
 m3	1	1	 vss vss nch w = 3u   l = 5u  m = 1
 m4	2	1	 vss vss nch w = 3u l = 5u    m = 1
 ma1 vop cz vdd vdd pch w = 8u l = 1u m = 2
 ma2 vop 2  vss vss nch w = 17.3u l = 1u m = 2
 c1  2  vop 1p
 rl   vop    vinn rld
 .ends
 .subckt trx vdd vss vinp vinn vop cz
 mb	b	cz	 vdd vdd pch w = 5u  l = 5u  m = 1
 m1	1	vinn b	 b	 pch w = 3u   l = 5u  m = 2
 m2	2	vinp b	 b	 pch w = 3u   l = 5u  m = 2
 m3	1	1	 vss vss nch w = 3u   l = 5u  m = 1
 m4	2	1	 vss vss nch w = 3u l = 5u    m = 1
 ma1 vop cz vdd vdd pch w = 8u l = 1u m = 2
 ma2 vop 2  vss vss nch w = 17.3u l = 1u m = 2
 c1  2  vop 1p
 .ends
 ******gm******
 .subckt gm vdd vss inp inn io2  vb
 .subckt gmx vdd vss in bd gg id sd
 ms  sd  sd bd  bd  pch  w = 2u    l = 2u m = 1
 min id  id  sd  in  pch w = 3u    l = 2u m = 1
 mn  id  gg  vss vss nch w = 5u    l = 5u m = 1
 .ends
 mo3a io1 io1 vdd vdd pch w = 4.8u l = 5u m = 1
 mo4a io2 io1 vdd vdd pch w = 4.8u l = 5u m = 1
 mo1  io1 ggp vss vss nch w = 5.7u l = 1u m = 1
 mo2  io2 ggn vss vss nch w = 5.7u l = 1u m = 1
 mb  bd  vb  vdd vdd pch w = 5u l = 1u   m = 1
 x1  vdd vss inn bd ggp idp sdp gmx
 x2  vdd vss inp bd ggn idn sdn gmx
 v0  idp ggp dc = 0
 v1  idn ggn dc = 0
 .ends
 ******current mirror******
 ic  cp vss dc = 500n
 mc0 cp cp vdd vdd pch w = 5u l = 0.4u m = 7
 mc1 c0 cp vdd vdd pch w = 5u l = 0.4u m = 2
 mc2 cn cn c0  c0  pch w = 1u l = 0.4u m = 1
 mc3 cn cn vss vss nch w = 5.1u l = 0.4u m = 3
 mcx  cz cz vdd vdd pch w = 1u l = 1u m = 1
 mcz  cz cn vss vss nch w = 10u l = 1u m = 3



 ***netlist***
 xtri vdd vss opb ti_in ti_out  cz  tr rld=20k
 xgm  vdd vss gm_in gm_out gm_out  cz  gm
 *xtro vdd vss opb to_in to_out  cz  trx
 xtro vdd vss opb to_in to_out  cz  gm       *use gm as op
 cg  gm_out gnd 10p

 ***nw input stage***
 .param pbi = 3.5u
 ip vdd out dc = pbi
 mc  out vgn nwd vss nch w = 10u  l = 0.4u m = 1
 vng vgn gnd dc = 1.8
 .param wx = 6u
 mnw nwd vnw vss vsn nch w = wx l = 0.4u m = 1
 .param ins = 0



 ***connection***
 vc2 out  ti_in dc = 0
 vc3 ti_out  gm_in dc = 0
 vc4 gm_out  to_in dc = 0
 vfc to_out vnw dc = 1.5


 vopbias opb gnd dc = 2 *ac = 1 *180
 .param
 +comon		= 2
 +diff		= 0
 vd vdd gnd dc = 3.3
 vs vss gnd dc = 0

 ***test***
 mt vdt vgt vst vst nch w = wx l = 0.4u m = 1
 it vst vss dc = 'pbi-ins'
 vtg vgt gnd dc = 0.6
 vtd vdt gnd dc = 1.2v
 .probe dc lx2(mt)
 *vts vst gnd dc = 0

 .probe dc  i(mnw) i(ip) i(mc) i(xtri.rl) lx3(mc) lv9(mc) lv9(mnw)
 + par'lx7(mc)/lx8(mc)/lx8(mnw)'
 .probe ac vp(to_out)

 .op




 .alter *all


 **warning**  the accurate option increases  the cpu time but the results
                are more accurate.
 ***accurate option sets default value of the options: 
 lvltim= 4         dvdt= 3       relvar= 200.00m absvar= 200.00m
     ft= 200.00m relmos=  10.00m
 (used for FFT control ) fft_accurate= 1
1****** HSPICE -- B-2008.09-SP1 32-BIT (Nov 24 2008) linux ******               
 ******  
 *inputstage

  ******  circuit name directory
 circuit number to circuit name directory
   number circuitname                     definition         multiplier
        0 main circuit
        1 xtri.                           tr                 1.00 
        2 xgm.                            gm                 1.00 
        3 xtro.                           gm                 1.00 
        4 xgm.x1.                         gmx                1.00 
        5 xgm.x2.                         gmx                1.00 
        6 xtro.x1.                        gmx                1.00 
        7 xtro.x2.                        gmx                1.00 
 

 
      
  Opening plot unit= 15
 file=new_loopTest.pa0                                                         

1****** HSPICE -- B-2008.09-SP1 32-BIT (Nov 24 2008) linux ******               
 ******  
 *inputstage

  ******  operating point information tnom=  25.000 temp=  25.000 *****
 ***** operating point status is all       simulation time is     0.     
    node    =voltage      node    =voltage      node    =voltage

 +0:c0      = 1.225e+00 0:cn      = 4.499e-01 0:cp      = 2.700e+00
 +0:cz      = 2.394e+00 0:gm_in   = 1.993e+00 0:gm_out  = 1.992e+00
 +0:nwd     = 1.026e+00 0:opb     = 2.000e+00 0:out     = 2.000e+00
 +0:ti_in   = 2.000e+00 0:ti_out  = 1.993e+00 0:to_in   = 1.992e+00
 +0:to_out  = 2.036e+00 0:vdd     = 3.300e+00 0:vdt     = 1.200e+00
 +0:vgn     = 1.800e+00 0:vgt     = 6.000e-01 0:vnw     = 5.368e-01
 +0:vsn     = 1.181e-01 0:vss     =   0.      0:vst     = 3.098e-02
 +1:1       = 5.967e-01 1:2       = 5.917e-01 1:b       = 2.833e+00
 +2:bd      = 2.715e+00 2:ggn     = 6.679e-01 2:ggp     = 6.680e-01
 +2:idn     = 6.679e-01 2:idp     = 6.680e-01 2:io1     = 1.980e+00
 +2:sdn     = 1.689e+00 2:sdp     = 1.688e+00 3:bd      = 2.715e+00
 +3:ggn     = 6.678e-01 3:ggp     = 6.681e-01 3:idn     = 6.678e-01
 +3:idp     = 6.681e-01 3:io1     = 1.979e+00 3:sdn     = 1.689e+00
 +3:sdp     = 1.689e+00


 maximum nodal capacitance=   1.003E-11         on node     0:gm_out          

    nodal  capacitance table 

    node    =    cap      node    =    cap      node    =    cap

 +0:c0      = 1.793e-14 0:cn      = 7.945e-14 0:cp      = 8.232e-14
 +0:cz      = 2.026e-13 0:gm_in   = 1.345e-14 0:gm_out  = 1.003e-11
 +0:nwd     = 1.932e-14 0:opb     = 9.867e-14 0:out     = 1.090e-14
 +0:ti_in   = 8.525e-14 0:ti_out  = 1.056e-12 0:to_in   = 1.345e-14
 +0:to_out  = 1.239e-14 0:vdd     = 1.129e-12 0:vdt     = 7.229e-15
 +0:vgn     = 7.001e-15 0:vgt     = 4.853e-15 0:vnw     = 4.979e-15
 +0:vsn     = 1.654e-14 0:vss     = 1.332e-12 0:vst     = 2.470e-14
 +1:1       = 9.656e-14 1:2       = 1.085e-12 1:b       = 2.955e-13
 +2:bd      = 6.569e-14 2:ggn     = 1.012e-13 2:ggp     = 1.012e-13
 +2:idn     = 3.062e-14 2:idp     = 3.062e-14 2:io1     = 1.717e-13
 +2:sdn     = 4.257e-14 2:sdp     = 4.257e-14 3:bd      = 6.569e-14
 +3:ggn     = 1.012e-13 3:ggp     = 1.012e-13 3:idn     = 3.061e-14
 +3:idp     = 3.062e-14 3:io1     = 1.717e-13 3:sdn     = 4.255e-14
 +3:sdp     = 4.258e-14

 

 ****  voltage sources

 subckt                                                                    
 element  0:vng      0:vc2      0:vc3      0:vc4      0:vfc      0:vopbias 
  volts    1.800e+00    0.         0.         0.       1.500e+00  2.000e+00
  current    0.       3.115e-07  1.631e-12  1.628e-12 -2.776e-17 -1.643e-12
  power      0.         0.         0.         0.       4.163e-17  3.286e-12

 subckt                                               xgm        xgm       
 element  0:vd       0:vs       0:vtg      0:vtd      2:v0       2:v1      
  volts    3.300e+00    0.       6.000e-01  1.200e+00    0.         0.     
  current -6.711e-05  7.061e-05    0.      -3.500e-06  2.776e-17  2.776e-17
  power    2.215e-04    0.         0.       4.200e-06    0.         0.     

 subckt   xtro       xtro      
 element  3:v0       3:v1      
  volts      0.         0.     
  current    0.       4.163e-17
  power      0.         0.     

     total voltage source power dissipation=  2.257e-04       watts



 ***** current sources

 subckt                                   
 element  0:ic       0:ip       0:it      
  volts    2.700e+00  1.300e+00  3.098e-02
  current  5.000e-07  3.500e-06  3.500e-06
  power   -1.350e-06 -4.550e-06 -1.084e-07


     total current source power dissipation=-6.009e-06       watts

 **** resistors

 subckt   xtri      
 element  1:rl      
  r value  2.000e+04
  v drop  -6.229e-03
  current -3.115e-07
  power    1.940e-09



 **** mosfets


 subckt                                                                    
 element  0:mc0      0:mc1      0:mc2      0:mc3      0:mcx      0:mcz     
 model    0:pch.3    0:pch.3    0:pch.6    0:nch.3    0:pch.5    0:nch.2   
 region       Cutoff     Cutoff   Saturati     Cutoff   Saturati     Cutoff
  id      -5.000e-07 -3.747e-07 -3.747e-07  3.747e-07 -6.069e-07  6.063e-07
  ibs      1.004e-19  7.527e-20  8.207e-20 -5.981e-19  1.329e-19 -9.126e-19
  ibd      3.331e-15  2.494e-12  1.159e-16 -2.153e-14  1.160e-16 -5.585e-10
  vgs     -5.993e-01 -5.993e-01 -7.753e-01  4.499e-01 -9.058e-01  4.499e-01
  vds     -5.993e-01 -2.074e+00 -7.753e-01  4.499e-01 -9.058e-01  2.394e+00
  vbs        0.         0.         0.         0.         0.         0.     
  vth     -7.198e-01 -6.799e-01 -7.454e-01  5.699e-01 -7.778e-01  5.635e-01
  vdsat   -4.893e-02 -5.365e-02 -1.021e-01  4.412e-02 -1.747e-01  4.465e-02
  vod      1.205e-01  8.054e-02 -2.990e-02 -1.199e-01 -1.280e-01 -1.136e-01
  beta     4.335e-03  1.252e-03  1.063e-04  8.618e-03  4.825e-05  6.708e-03
  gam eff  4.553e-01  4.553e-01  4.082e-01  5.577e-01  3.889e-01  4.720e-01
  gm       1.151e-05  8.252e-06  5.574e-06  9.828e-06  6.523e-06  1.525e-05
  gds      3.541e-07  2.330e-07  1.632e-07  1.620e-07  6.154e-08  8.384e-08
  gmb      2.576e-06  1.809e-06  1.177e-06  2.825e-06  1.414e-06  4.592e-06
  cdtot    5.072e-14  1.084e-14  1.895e-15  2.054e-14  1.835e-15  3.189e-14
  cgtot    2.458e-14  7.023e-15  9.699e-16  1.269e-14  3.685e-15  4.335e-14
  cstot    6.271e-14  1.792e-14  2.700e-15  2.275e-14  5.690e-15  4.284e-14
  cbtot    1.121e-13  2.838e-14  4.394e-15  4.318e-14  5.204e-15  9.314e-14
  cgs      6.469e-15  1.848e-15  3.889e-16  3.200e-15  2.762e-15  6.232e-15
  cgd      6.469e-15  1.848e-15  1.922e-16  3.200e-15  1.922e-16  6.232e-15



 subckt                                    xtri       xtri       xtri      
 element  0:mc       0:mnw      0:mt       1:mb       1:m1       1:m2      
 model    0:nch.3    0:nch.3    0:nch.3    0:pch.1    0:pch.1    0:pch.1   
 region       Cutoff   Saturati   Saturati   Saturati   Saturati   Saturati
  id       3.189e-06  3.189e-06  3.500e-06 -1.001e-06 -5.003e-07 -5.003e-07
  ibs     -1.308e-14  8.094e-13 -5.488e-18  2.009e-19  1.022e-19  1.021e-19
  ibd     -1.625e-14 -1.898e-14 -2.146e-13  4.759e-16  3.289e-13  3.364e-13
  vgs      7.734e-01  5.368e-01  5.690e-01 -9.058e-01 -8.330e-01 -8.330e-01
  vds      9.734e-01  1.026e+00  1.169e+00 -4.670e-01 -2.236e+00 -2.241e+00
  vbs     -1.026e+00  1.181e-01    0.         0.         0.         0.     
  vth      7.969e-01  5.352e-01  5.649e-01 -7.520e-01 -7.564e-01 -7.564e-01
  vdsat    5.842e-02  6.174e-02  6.341e-02 -1.923e-01 -1.334e-01 -1.333e-01
  vod     -2.341e-02  1.624e-03  4.080e-03 -1.538e-01 -7.656e-02 -7.655e-02
  beta     5.630e-03  3.413e-03  3.403e-03  6.424e-05  7.579e-05  7.579e-05
  gam eff  5.735e-01  5.588e-01  5.599e-01  4.097e-01  4.002e-01  4.002e-01
  gm       7.788e-05  7.009e-05  7.677e-05  9.660e-06  6.328e-06  6.327e-06
  gds      1.429e-06  9.893e-07  1.096e-06  4.190e-08  1.408e-08  1.407e-08
  gmb      1.440e-05  1.658e-05  2.092e-05  2.268e-06  1.501e-06  1.501e-06
  cdtot    1.090e-14  7.443e-15  7.229e-15  7.534e-15  6.749e-15  6.744e-15
  cgtot    7.001e-15  4.979e-15  4.853e-15  8.017e-14  8.525e-14  8.525e-14
  cstot    1.188e-14  9.124e-15  8.812e-15  9.611e-14  9.564e-14  9.563e-14
  cbtot    2.148e-14  1.654e-14  1.588e-14  4.098e-14  4.836e-14  4.835e-14
  cgs      2.077e-15  1.252e-15  1.252e-15  6.913e-14  6.716e-14  6.716e-14
  cgd      2.077e-15  1.252e-15  1.252e-15  9.242e-16  1.116e-15  1.116e-15



 subckt   xtri       xtri       xtri       xtri       xgm        xgm       
 element  1:m3       1:m4       1:ma1      1:ma2      2:mo3a     2:mo4a    
 model    0:nch.1    0:nch.1    0:pch.2    0:nch.2    0:pch.1    0:pch.1   
 region     Saturati   Saturati   Saturati   Saturati   Saturati   Saturati
  id       5.003e-07  5.003e-07 -1.542e-05  1.573e-05 -9.283e-06 -9.281e-06
  ibs     -8.613e-19 -8.612e-19  3.064e-18 -2.303e-17  1.863e-18  1.862e-18
  ibd     -4.644e-15 -4.644e-15  1.471e-14 -1.607e-09  4.587e-16  4.584e-16
  vgs      5.967e-01  5.967e-01 -9.058e-01  5.917e-01 -1.319e+00 -1.319e+00
  vds      5.967e-01  5.917e-01 -1.306e+00  1.993e+00 -1.319e+00 -1.307e+00
  vbs        0.         0.         0.         0.         0.         0.     
  vth      5.345e-01  5.345e-01 -7.514e-01  5.661e-01 -7.510e-01 -7.511e-01
  vdsat    1.076e-01  1.076e-01 -1.985e-01  7.857e-02 -5.586e-01 -5.586e-01
  vod      6.218e-02  6.217e-02 -1.543e-01  2.553e-02 -5.687e-01 -5.687e-01
  beta     1.171e-04  1.171e-04  9.120e-04  7.794e-03  5.773e-05  5.773e-05
  gam eff  4.547e-01  4.547e-01  3.952e-01  4.732e-01  4.091e-01  4.091e-01
  gm       7.528e-06  7.527e-06  1.521e-04  2.990e-04  2.964e-05  2.963e-05
  gds      1.046e-08  1.049e-08  1.421e-06  1.494e-06  1.386e-07  1.399e-07
  gmb      2.238e-06  2.237e-06  3.314e-05  8.714e-05  6.922e-06  6.921e-06
  cdtot    4.161e-15  4.164e-15  1.900e-14  3.702e-14  5.911e-15  5.925e-15
  cgtot    4.283e-14  4.283e-14  5.210e-14  7.386e-14  7.969e-14  7.969e-14
  cstot    4.679e-14  4.679e-14  7.919e-14  9.293e-14  9.644e-14  9.644e-14
  cbtot    2.665e-14  2.666e-14  5.540e-14  1.072e-13  3.770e-14  3.772e-14
  cgs      3.216e-14  3.216e-14  4.371e-14  4.032e-14  7.019e-14  7.019e-14
  cgd      6.333e-16  6.333e-16  2.946e-15  7.167e-15  8.876e-16  8.876e-16



 subckt   xgm        xgm        xgm        xtro       xtro       xtro      
 element  2:mo1      2:mo2      2:mb       3:mo3a     3:mo4a     3:mo1     
 model    0:nch.2    0:nch.2    0:pch.2    0:pch.1    0:pch.1    0:nch.2   
 region     Saturati   Saturati   Saturati   Saturati   Saturati   Saturati
  id       9.282e-06  9.281e-06 -4.276e-06 -9.299e-06 -9.291e-06  9.298e-06
  ibs     -1.462e-17 -1.462e-17  8.581e-19  1.866e-18  1.864e-18 -1.465e-17
  ibd     -6.371e-10 -6.884e-10  4.759e-16  4.587e-16  4.580e-16 -6.356e-10
  vgs      6.680e-01  6.679e-01 -9.058e-01 -1.320e+00 -1.320e+00  6.681e-01
  vds      1.980e+00  1.992e+00 -5.850e-01 -1.320e+00 -1.263e+00  1.979e+00
  vbs        0.         0.         0.         0.         0.         0.     
  vth      5.615e-01  5.615e-01 -7.586e-01 -7.510e-01 -7.511e-01  5.615e-01
  vdsat    1.278e-01  1.278e-01 -1.922e-01 -5.591e-01 -5.590e-01  1.279e-01
  vod      1.065e-01  1.064e-01 -1.471e-01 -5.692e-01 -5.691e-01  1.066e-01
  beta     1.237e-03  1.237e-03  2.799e-04  5.772e-05  5.772e-05  1.237e-03
  gam eff  4.699e-01  4.699e-01  3.951e-01  4.091e-01  4.091e-01  4.699e-01
  gm       1.236e-04  1.236e-04  4.319e-05  2.966e-05  2.963e-05  1.237e-04
  gds      5.976e-07  5.981e-07  5.586e-07  1.388e-07  1.450e-07  5.982e-07
  gmb      3.575e-05  3.575e-05  9.406e-06  6.927e-06  6.921e-06  3.579e-05
  cdtot    6.436e-15  6.431e-15  7.275e-15  5.911e-15  5.977e-15  6.437e-15
  cgtot    1.911e-14  1.910e-14  1.647e-14  7.969e-14  7.969e-14  1.911e-14
  cstot    2.707e-14  2.706e-14  2.507e-14  9.644e-14  9.644e-14  2.708e-14
  cbtot    1.924e-14  1.923e-14  1.912e-14  3.770e-14  3.777e-14  1.924e-14
  cgs      1.516e-14  1.516e-14  1.367e-14  7.019e-14  7.019e-14  1.517e-14
  cgd      1.190e-15  1.190e-15  9.242e-16  8.876e-16  8.876e-16  1.190e-15



 subckt   xtro       xtro       xgm.x1     xgm.x1     xgm.x1     xgm.x2    
 element  3:mo2      3:mb       4:ms       4:min      4:mn       5:ms      
 model    0:nch.2    0:pch.2    0:pch.1    0:pch.1    0:nch.1    0:pch.1   
 region     Saturati   Saturati   Saturati   Saturati   Saturati   Saturati
  id       9.290e-06 -4.276e-06 -2.139e-06 -2.139e-06  2.139e-06 -2.137e-06
  ibs     -1.463e-17  8.581e-19  4.448e-19  2.959e-16 -3.421e-18  4.444e-19
  ibd     -9.148e-10  4.759e-16  2.061e-16  2.967e-16 -7.055e-15  2.061e-16
  vgs      6.678e-01 -9.058e-01 -1.026e+00 -1.021e+00  6.680e-01 -1.025e+00
  vds      2.036e+00 -5.846e-01 -1.026e+00 -1.021e+00  6.680e-01 -1.025e+00
  vbs        0.         0.         0.       3.032e-01    0.         0.     
  vth      5.614e-01 -7.586e-01 -7.668e-01 -8.214e-01  5.378e-01 -7.668e-01
  vdsat    1.278e-01 -1.922e-01 -2.829e-01 -2.359e-01  1.565e-01 -2.828e-01
  vod      1.064e-01 -1.471e-01 -2.592e-01 -1.996e-01  1.302e-01 -2.591e-01
  beta     1.237e-03  2.799e-04  5.640e-05  8.694e-05  2.004e-04  5.640e-05
  gam eff  4.699e-01  3.951e-01  3.892e-01  3.974e-01  4.621e-01  3.892e-01
  gm       1.237e-04  4.319e-05  1.432e-05  1.771e-05  2.416e-05  1.432e-05
  gds      6.012e-07  5.588e-07  1.165e-07  1.212e-07  3.587e-08  1.165e-07
  gmb      3.577e-05  9.406e-06  3.170e-06  3.400e-06  7.212e-06  3.169e-06
  cdtot    6.411e-15  7.276e-15  2.968e-15  3.904e-15  6.495e-15  2.968e-15
  cgtot    1.910e-14  1.647e-14  1.406e-14  2.022e-14  8.207e-14  1.406e-14
  cstot    2.706e-14  2.507e-14  1.839e-14  2.555e-14  9.837e-14  1.839e-14
  cbtot    1.921e-14  1.913e-14  1.082e-14  1.345e-14  4.346e-14  1.082e-14
  cgs      1.515e-14  1.367e-14  1.172e-14  1.730e-14  6.908e-14  1.172e-14
  cgd      1.190e-15  9.242e-16  3.751e-16  5.582e-16  1.046e-15  3.751e-16



 subckt   xgm.x2     xgm.x2     xtro.x1    xtro.x1    xtro.x1    xtro.x2   
 element  5:min      5:mn       6:ms       6:min      6:mn       7:ms      
 model    0:pch.1    0:nch.1    0:pch.1    0:pch.1    0:nch.1    0:pch.1   
 region     Saturati   Saturati   Saturati   Saturati   Saturati   Saturati
  id      -2.137e-06  2.137e-06 -2.142e-06 -2.142e-06  2.142e-06 -2.134e-06
  ibs      2.959e-16 -3.418e-18  4.454e-19  2.959e-16 -3.426e-18  4.437e-19
  ibd      2.968e-16 -7.055e-15  2.061e-16  2.967e-16 -7.055e-15  2.061e-16
  vgs     -1.021e+00  6.679e-01 -1.026e+00 -1.021e+00  6.681e-01 -1.025e+00
  vds     -1.021e+00  6.679e-01 -1.026e+00 -1.021e+00  6.681e-01 -1.025e+00
  vbs      3.047e-01    0.         0.       3.029e-01    0.         0.     
  vth     -8.217e-01  5.378e-01 -7.668e-01 -8.213e-01  5.378e-01 -7.668e-01
  vdsat   -2.359e-01  1.564e-01 -2.831e-01 -2.361e-01  1.566e-01 -2.826e-01
  vod     -1.995e-01  1.301e-01 -2.594e-01 -1.997e-01  1.303e-01 -2.589e-01
  beta     8.693e-05  2.004e-04  5.640e-05  8.694e-05  2.004e-04  5.640e-05
  gam eff  3.974e-01  4.621e-01  3.892e-01  3.974e-01  4.621e-01  3.892e-01
  gm       1.770e-05  2.415e-05  1.433e-05  1.773e-05  2.418e-05  1.430e-05
  gds      1.211e-07  3.585e-08  1.167e-07  1.213e-07  3.590e-08  1.163e-07
  gmb      3.397e-06  7.208e-06  3.172e-06  3.404e-06  7.218e-06  3.166e-06
  cdtot    3.903e-15  6.496e-15  2.968e-15  3.904e-15  6.495e-15  2.968e-15
  cgtot    2.022e-14  8.206e-14  1.406e-14  2.022e-14  8.208e-14  1.406e-14
  cstot    2.554e-14  9.836e-14  1.839e-14  2.555e-14  9.839e-14  1.839e-14
  cbtot    1.345e-14  4.346e-14  1.082e-14  1.345e-14  4.346e-14  1.082e-14
  cgs      1.730e-14  6.907e-14  1.172e-14  1.730e-14  6.909e-14  1.172e-14
  cgd      5.582e-16  1.046e-15  3.751e-16  5.582e-16  1.046e-15  3.751e-16



 subckt   xtro.x2    xtro.x2   
 element  7:min      7:mn      
 model    0:pch.1    0:nch.1   
 region     Saturati   Saturati
  id      -2.134e-06  2.134e-06
  ibs      2.959e-16 -3.413e-18
  ibd      2.968e-16 -7.055e-15
  vgs     -1.022e+00  6.678e-01
  vds     -1.022e+00  6.678e-01
  vbs      3.102e-01    0.     
  vth     -8.227e-01  5.378e-01
  vdsat   -2.358e-01  1.563e-01
  vod     -1.993e-01  1.300e-01
  beta     8.691e-05  2.004e-04
  gam eff  3.974e-01  4.621e-01
  gm       1.769e-05  2.412e-05
  gds      1.209e-07  3.581e-08
  gmb      3.386e-06  7.201e-06
  cdtot    3.898e-15  6.496e-15
  cgtot    2.021e-14  8.205e-14
  cstot    2.552e-14  9.834e-14
  cbtot    1.342e-14  4.346e-14
  cgs      1.730e-14  6.905e-14
  cgd      5.582e-16  1.046e-15




          ***** job concluded
1****** HSPICE -- B-2008.09-SP1 32-BIT (Nov 24 2008) linux ******               
 ******  
 *inputstage

  ******  job statistics summary tnom=  25.000 temp=  25.000 *****

  ******  HSPICE Threads Information  ******
  Command Line Threads Count:                      0
  Available CPU Count:                             8
  Actual Model Evaluation(Load) Threads Count:     1
  Actual Solver Threads Count:                     1


  ******  Circuit Statistics  ******
  # nodes       =     119  # elements   =      60
  # resistors   =       1  # capacitors =       2  # inductors   =       0
  # mutual_inds =       0  # vccs       =       0  # vcvs        =       0
  # cccs        =       0  # ccvs       =       0  # volt_srcs   =      16
  # curr_srcs   =       3  # diodes     =       0  # bjts        =       0
  # jfets       =       0  # mosfets    =      38  # U elements  =       0
  # T elements  =       0  # W elements =       0  # B elements  =       0
  # S elements  =       0  # P elements =       0  # va device   =       0


  ******  Runtime Statistics (seconds)  ******

  analysis           time    # points   tot. iter  conv.iter
  op point           0.01           1          63
  readin             0.05
  errchk             0.01
  setup              0.00
  output             0.00


           total memory used          695  kbytes
           total cpu time            0.07 seconds
           total elapsed time        0.21 seconds
           job started at     15:24:00 02/12/2016
           job ended   at     15:24:00 02/12/2016


1****** HSPICE -- B-2008.09-SP1 32-BIT (Nov 24 2008) linux ******               
 ******  
  *all

  ******    alter processing listing tnom=  25.000 temp=  25.000 *****
 vfc to_out vnw dc = 1.5 ac = 1 *sin(1.5 0.1 1k 1ns)
 *.ac wx 0.4u 20u 0.1u

 *.noise
 .lib 'test.l' all
 inw nwd vss dc = ins
 .dc ins dec 1000 100n 3u
 .ac dec 1000 1 1g
 .endl
 ***loop gain test***
 .alter * on vnw
 $ alter processing continues $


 **warning**  the accurate option increases  the cpu time but the results
                are more accurate.
 ***accurate option sets default value of the options: 
 lvltim= 4         dvdt= 3       relvar= 200.00m absvar= 200.00m
     ft= 200.00m relmos=  10.00m
 (used for FFT control ) fft_accurate= 1
1****** HSPICE -- B-2008.09-SP1 32-BIT (Nov 24 2008) linux ******               
 ******  
  *all

  ******  circuit name directory
 circuit number to circuit name directory
   number circuitname                     definition         multiplier
        0 main circuit
        1 xtri.                           tr                 1.00 
        2 xgm.                            gm                 1.00 
        3 xtro.                           gm                 1.00 
        4 xgm.x1.                         gmx                1.00 
        5 xgm.x2.                         gmx                1.00 
        6 xtro.x1.                        gmx                1.00 
        7 xtro.x2.                        gmx                1.00 
 
      
  Opening plot unit= 15
 file=new_loopTest.pa1                                                         

1****** HSPICE -- B-2008.09-SP1 32-BIT (Nov 24 2008) linux ******               
 ******  
  *all

  ******  operating point information tnom=  25.000 temp=  25.000 *****
 ***** operating point status is all       simulation time is     0.     
    node    =voltage      node    =voltage      node    =voltage

 +0:c0      = 1.225e+00 0:cn      = 4.499e-01 0:cp      = 2.700e+00
 +0:cz      = 2.394e+00 0:gm_in   = 1.993e+00 0:gm_out  = 1.992e+00
 +0:nwd     = 1.026e+00 0:opb     = 2.000e+00 0:out     = 2.000e+00
 +0:ti_in   = 2.000e+00 0:ti_out  = 1.993e+00 0:to_in   = 1.992e+00
 +0:to_out  = 2.036e+00 0:vdd     = 3.300e+00 0:vdt     = 1.200e+00
 +0:vgn     = 1.800e+00 0:vgt     = 6.000e-01 0:vnw     = 5.368e-01
 +0:vsn     = 1.181e-01 0:vss     =   0.      0:vst     = 3.098e-02
 +1:1       = 5.967e-01 1:2       = 5.917e-01 1:b       = 2.833e+00
 +2:bd      = 2.715e+00 2:ggn     = 6.679e-01 2:ggp     = 6.680e-01
 +2:idn     = 6.679e-01 2:idp     = 6.680e-01 2:io1     = 1.980e+00
 +2:sdn     = 1.689e+00 2:sdp     = 1.688e+00 3:bd      = 2.715e+00
 +3:ggn     = 6.678e-01 3:ggp     = 6.681e-01 3:idn     = 6.678e-01
 +3:idp     = 6.681e-01 3:io1     = 1.979e+00 3:sdn     = 1.689e+00
 +3:sdp     = 1.689e+00


 maximum nodal capacitance=   1.003E-11         on node     0:gm_out          

    nodal  capacitance table 

    node    =    cap      node    =    cap      node    =    cap

 +0:c0      = 1.793e-14 0:cn      = 7.945e-14 0:cp      = 8.232e-14
 +0:cz      = 2.026e-13 0:gm_in   = 1.345e-14 0:gm_out  = 1.003e-11
 +0:nwd     = 1.932e-14 0:opb     = 9.867e-14 0:out     = 1.090e-14
 +0:ti_in   = 8.525e-14 0:ti_out  = 1.056e-12 0:to_in   = 1.345e-14
 +0:to_out  = 1.239e-14 0:vdd     = 1.129e-12 0:vdt     = 7.229e-15
 +0:vgn     = 7.001e-15 0:vgt     = 4.853e-15 0:vnw     = 4.979e-15
 +0:vsn     = 1.654e-14 0:vss     = 1.332e-12 0:vst     = 2.470e-14
 +1:1       = 9.656e-14 1:2       = 1.085e-12 1:b       = 2.955e-13
 +2:bd      = 6.569e-14 2:ggn     = 1.012e-13 2:ggp     = 1.012e-13
 +2:idn     = 3.062e-14 2:idp     = 3.062e-14 2:io1     = 1.717e-13
 +2:sdn     = 4.257e-14 2:sdp     = 4.257e-14 3:bd      = 6.569e-14
 +3:ggn     = 1.012e-13 3:ggp     = 1.012e-13 3:idn     = 3.061e-14
 +3:idp     = 3.062e-14 3:io1     = 1.717e-13 3:sdn     = 4.255e-14
 +3:sdp     = 4.258e-14

 

 ****  voltage sources

 subckt                                                                    
 element  0:vng      0:vc2      0:vc3      0:vc4      0:vfc      0:vopbias 
  volts    1.800e+00    0.         0.         0.       1.500e+00  2.000e+00
  current    0.       3.115e-07  1.631e-12  1.628e-12 -2.776e-17 -1.643e-12
  power      0.         0.         0.         0.       4.163e-17  3.286e-12

 subckt                                               xgm        xgm       
 element  0:vd       0:vs       0:vtg      0:vtd      2:v0       2:v1      
  volts    3.300e+00    0.       6.000e-01  1.200e+00    0.         0.     
  current -6.711e-05  7.061e-05    0.      -3.500e-06  2.776e-17  2.776e-17
  power    2.215e-04    0.         0.       4.200e-06    0.         0.     

 subckt   xtro       xtro      
 element  3:v0       3:v1      
  volts      0.         0.     
  current    0.       4.163e-17
  power      0.         0.     

     total voltage source power dissipation=  2.257e-04       watts



 ***** current sources

 subckt                                              
 element  0:ic       0:ip       0:it       0:inw     
  volts    2.700e+00  1.300e+00  3.098e-02  1.026e+00
  current  5.000e-07  3.500e-06  3.500e-06    0.     
  power   -1.350e-06 -4.550e-06 -1.084e-07    0.     


     total current source power dissipation=-6.009e-06       watts

 **** resistors

 subckt   xtri      
 element  1:rl      
  r value  2.000e+04
  v drop  -6.229e-03
  current -3.115e-07
  power    1.940e-09



 **** mosfets


 subckt                                                                    
 element  0:mc0      0:mc1      0:mc2      0:mc3      0:mcx      0:mcz     
 model    0:pch.3    0:pch.3    0:pch.6    0:nch.3    0:pch.5    0:nch.2   
 region       Cutoff     Cutoff   Saturati     Cutoff   Saturati     Cutoff
  id      -5.000e-07 -3.747e-07 -3.747e-07  3.747e-07 -6.069e-07  6.063e-07
  ibs      1.004e-19  7.527e-20  8.207e-20 -5.981e-19  1.329e-19 -9.126e-19
  ibd      3.331e-15  2.494e-12  1.159e-16 -2.153e-14  1.160e-16 -5.585e-10
  vgs     -5.993e-01 -5.993e-01 -7.753e-01  4.499e-01 -9.058e-01  4.499e-01
  vds     -5.993e-01 -2.074e+00 -7.753e-01  4.499e-01 -9.058e-01  2.394e+00
  vbs        0.         0.         0.         0.         0.         0.     
  vth     -7.198e-01 -6.799e-01 -7.454e-01  5.699e-01 -7.778e-01  5.635e-01
  vdsat   -4.893e-02 -5.365e-02 -1.021e-01  4.412e-02 -1.747e-01  4.465e-02
  vod      1.205e-01  8.054e-02 -2.990e-02 -1.199e-01 -1.280e-01 -1.136e-01
  beta     4.335e-03  1.252e-03  1.063e-04  8.618e-03  4.825e-05  6.708e-03
  gam eff  4.553e-01  4.553e-01  4.082e-01  5.577e-01  3.889e-01  4.720e-01
  gm       1.151e-05  8.252e-06  5.574e-06  9.828e-06  6.523e-06  1.525e-05
  gds      3.541e-07  2.330e-07  1.632e-07  1.620e-07  6.154e-08  8.384e-08
  gmb      2.576e-06  1.809e-06  1.177e-06  2.825e-06  1.414e-06  4.592e-06
  cdtot    5.072e-14  1.084e-14  1.895e-15  2.054e-14  1.835e-15  3.189e-14
  cgtot    2.458e-14  7.023e-15  9.699e-16  1.269e-14  3.685e-15  4.335e-14
  cstot    6.271e-14  1.792e-14  2.700e-15  2.275e-14  5.690e-15  4.284e-14
  cbtot    1.121e-13  2.838e-14  4.394e-15  4.318e-14  5.204e-15  9.314e-14
  cgs      6.469e-15  1.848e-15  3.889e-16  3.200e-15  2.762e-15  6.232e-15
  cgd      6.469e-15  1.848e-15  1.922e-16  3.200e-15  1.922e-16  6.232e-15



 subckt                                    xtri       xtri       xtri      
 element  0:mc       0:mnw      0:mt       1:mb       1:m1       1:m2      
 model    0:nch.3    0:nch.3    0:nch.3    0:pch.1    0:pch.1    0:pch.1   
 region       Cutoff   Saturati   Saturati   Saturati   Saturati   Saturati
  id       3.189e-06  3.189e-06  3.500e-06 -1.001e-06 -5.003e-07 -5.003e-07
  ibs     -1.308e-14  8.094e-13 -5.488e-18  2.009e-19  1.022e-19  1.021e-19
  ibd     -1.625e-14 -1.898e-14 -2.146e-13  4.759e-16  3.289e-13  3.364e-13
  vgs      7.734e-01  5.368e-01  5.690e-01 -9.058e-01 -8.330e-01 -8.330e-01
  vds      9.734e-01  1.026e+00  1.169e+00 -4.670e-01 -2.236e+00 -2.241e+00
  vbs     -1.026e+00  1.181e-01    0.         0.         0.         0.     
  vth      7.969e-01  5.352e-01  5.649e-01 -7.520e-01 -7.564e-01 -7.564e-01
  vdsat    5.842e-02  6.174e-02  6.341e-02 -1.923e-01 -1.334e-01 -1.333e-01
  vod     -2.341e-02  1.624e-03  4.080e-03 -1.538e-01 -7.656e-02 -7.655e-02
  beta     5.630e-03  3.413e-03  3.403e-03  6.424e-05  7.579e-05  7.579e-05
  gam eff  5.735e-01  5.588e-01  5.599e-01  4.097e-01  4.002e-01  4.002e-01
  gm       7.788e-05  7.009e-05  7.677e-05  9.660e-06  6.328e-06  6.327e-06
  gds      1.429e-06  9.893e-07  1.096e-06  4.190e-08  1.408e-08  1.407e-08
  gmb      1.440e-05  1.658e-05  2.092e-05  2.268e-06  1.501e-06  1.501e-06
  cdtot    1.090e-14  7.443e-15  7.229e-15  7.534e-15  6.749e-15  6.744e-15
  cgtot    7.001e-15  4.979e-15  4.853e-15  8.017e-14  8.525e-14  8.525e-14
  cstot    1.188e-14  9.124e-15  8.812e-15  9.611e-14  9.564e-14  9.563e-14
  cbtot    2.148e-14  1.654e-14  1.588e-14  4.098e-14  4.836e-14  4.835e-14
  cgs      2.077e-15  1.252e-15  1.252e-15  6.913e-14  6.716e-14  6.716e-14
  cgd      2.077e-15  1.252e-15  1.252e-15  9.242e-16  1.116e-15  1.116e-15



 subckt   xtri       xtri       xtri       xtri       xgm        xgm       
 element  1:m3       1:m4       1:ma1      1:ma2      2:mo3a     2:mo4a    
 model    0:nch.1    0:nch.1    0:pch.2    0:nch.2    0:pch.1    0:pch.1   
 region     Saturati   Saturati   Saturati   Saturati   Saturati   Saturati
  id       5.003e-07  5.003e-07 -1.542e-05  1.573e-05 -9.283e-06 -9.281e-06
  ibs     -8.613e-19 -8.612e-19  3.064e-18 -2.303e-17  1.863e-18  1.862e-18
  ibd     -4.644e-15 -4.644e-15  1.471e-14 -1.607e-09  4.587e-16  4.584e-16
  vgs      5.967e-01  5.967e-01 -9.058e-01  5.917e-01 -1.319e+00 -1.319e+00
  vds      5.967e-01  5.917e-01 -1.306e+00  1.993e+00 -1.319e+00 -1.307e+00
  vbs        0.         0.         0.         0.         0.         0.     
  vth      5.345e-01  5.345e-01 -7.514e-01  5.661e-01 -7.510e-01 -7.511e-01
  vdsat    1.076e-01  1.076e-01 -1.985e-01  7.857e-02 -5.586e-01 -5.586e-01
  vod      6.218e-02  6.217e-02 -1.543e-01  2.553e-02 -5.687e-01 -5.687e-01
  beta     1.171e-04  1.171e-04  9.120e-04  7.794e-03  5.773e-05  5.773e-05
  gam eff  4.547e-01  4.547e-01  3.952e-01  4.732e-01  4.091e-01  4.091e-01
  gm       7.528e-06  7.527e-06  1.521e-04  2.990e-04  2.964e-05  2.963e-05
  gds      1.046e-08  1.049e-08  1.421e-06  1.494e-06  1.386e-07  1.399e-07
  gmb      2.238e-06  2.237e-06  3.314e-05  8.714e-05  6.922e-06  6.921e-06
  cdtot    4.161e-15  4.164e-15  1.900e-14  3.702e-14  5.911e-15  5.925e-15
  cgtot    4.283e-14  4.283e-14  5.210e-14  7.386e-14  7.969e-14  7.969e-14
  cstot    4.679e-14  4.679e-14  7.919e-14  9.293e-14  9.644e-14  9.644e-14
  cbtot    2.665e-14  2.666e-14  5.540e-14  1.072e-13  3.770e-14  3.772e-14
  cgs      3.216e-14  3.216e-14  4.371e-14  4.032e-14  7.019e-14  7.019e-14
  cgd      6.333e-16  6.333e-16  2.946e-15  7.167e-15  8.876e-16  8.876e-16



 subckt   xgm        xgm        xgm        xtro       xtro       xtro      
 element  2:mo1      2:mo2      2:mb       3:mo3a     3:mo4a     3:mo1     
 model    0:nch.2    0:nch.2    0:pch.2    0:pch.1    0:pch.1    0:nch.2   
 region     Saturati   Saturati   Saturati   Saturati   Saturati   Saturati
  id       9.282e-06  9.281e-06 -4.276e-06 -9.299e-06 -9.291e-06  9.298e-06
  ibs     -1.462e-17 -1.462e-17  8.581e-19  1.866e-18  1.864e-18 -1.465e-17
  ibd     -6.371e-10 -6.884e-10  4.759e-16  4.587e-16  4.580e-16 -6.356e-10
  vgs      6.680e-01  6.679e-01 -9.058e-01 -1.320e+00 -1.320e+00  6.681e-01
  vds      1.980e+00  1.992e+00 -5.850e-01 -1.320e+00 -1.263e+00  1.979e+00
  vbs        0.         0.         0.         0.         0.         0.     
  vth      5.615e-01  5.615e-01 -7.586e-01 -7.510e-01 -7.511e-01  5.615e-01
  vdsat    1.278e-01  1.278e-01 -1.922e-01 -5.591e-01 -5.590e-01  1.279e-01
  vod      1.065e-01  1.064e-01 -1.471e-01 -5.692e-01 -5.691e-01  1.066e-01
  beta     1.237e-03  1.237e-03  2.799e-04  5.772e-05  5.772e-05  1.237e-03
  gam eff  4.699e-01  4.699e-01  3.951e-01  4.091e-01  4.091e-01  4.699e-01
  gm       1.236e-04  1.236e-04  4.319e-05  2.966e-05  2.963e-05  1.237e-04
  gds      5.976e-07  5.981e-07  5.586e-07  1.388e-07  1.450e-07  5.982e-07
  gmb      3.575e-05  3.575e-05  9.406e-06  6.927e-06  6.921e-06  3.579e-05
  cdtot    6.436e-15  6.431e-15  7.275e-15  5.911e-15  5.977e-15  6.437e-15
  cgtot    1.911e-14  1.910e-14  1.647e-14  7.969e-14  7.969e-14  1.911e-14
  cstot    2.707e-14  2.706e-14  2.507e-14  9.644e-14  9.644e-14  2.708e-14
  cbtot    1.924e-14  1.923e-14  1.912e-14  3.770e-14  3.777e-14  1.924e-14
  cgs      1.516e-14  1.516e-14  1.367e-14  7.019e-14  7.019e-14  1.517e-14
  cgd      1.190e-15  1.190e-15  9.242e-16  8.876e-16  8.876e-16  1.190e-15



 subckt   xtro       xtro       xgm.x1     xgm.x1     xgm.x1     xgm.x2    
 element  3:mo2      3:mb       4:ms       4:min      4:mn       5:ms      
 model    0:nch.2    0:pch.2    0:pch.1    0:pch.1    0:nch.1    0:pch.1   
 region     Saturati   Saturati   Saturati   Saturati   Saturati   Saturati
  id       9.290e-06 -4.276e-06 -2.139e-06 -2.139e-06  2.139e-06 -2.137e-06
  ibs     -1.463e-17  8.581e-19  4.448e-19  2.959e-16 -3.421e-18  4.444e-19
  ibd     -9.148e-10  4.759e-16  2.061e-16  2.967e-16 -7.055e-15  2.061e-16
  vgs      6.678e-01 -9.058e-01 -1.026e+00 -1.021e+00  6.680e-01 -1.025e+00
  vds      2.036e+00 -5.846e-01 -1.026e+00 -1.021e+00  6.680e-01 -1.025e+00
  vbs        0.         0.         0.       3.032e-01    0.         0.     
  vth      5.614e-01 -7.586e-01 -7.668e-01 -8.214e-01  5.378e-01 -7.668e-01
  vdsat    1.278e-01 -1.922e-01 -2.829e-01 -2.359e-01  1.565e-01 -2.828e-01
  vod      1.064e-01 -1.471e-01 -2.592e-01 -1.996e-01  1.302e-01 -2.591e-01
  beta     1.237e-03  2.799e-04  5.640e-05  8.694e-05  2.004e-04  5.640e-05
  gam eff  4.699e-01  3.951e-01  3.892e-01  3.974e-01  4.621e-01  3.892e-01
  gm       1.237e-04  4.319e-05  1.432e-05  1.771e-05  2.416e-05  1.432e-05
  gds      6.012e-07  5.588e-07  1.165e-07  1.212e-07  3.587e-08  1.165e-07
  gmb      3.577e-05  9.406e-06  3.170e-06  3.400e-06  7.212e-06  3.169e-06
  cdtot    6.411e-15  7.276e-15  2.968e-15  3.904e-15  6.495e-15  2.968e-15
  cgtot    1.910e-14  1.647e-14  1.406e-14  2.022e-14  8.207e-14  1.406e-14
  cstot    2.706e-14  2.507e-14  1.839e-14  2.555e-14  9.837e-14  1.839e-14
  cbtot    1.921e-14  1.913e-14  1.082e-14  1.345e-14  4.346e-14  1.082e-14
  cgs      1.515e-14  1.367e-14  1.172e-14  1.730e-14  6.908e-14  1.172e-14
  cgd      1.190e-15  9.242e-16  3.751e-16  5.582e-16  1.046e-15  3.751e-16



 subckt   xgm.x2     xgm.x2     xtro.x1    xtro.x1    xtro.x1    xtro.x2   
 element  5:min      5:mn       6:ms       6:min      6:mn       7:ms      
 model    0:pch.1    0:nch.1    0:pch.1    0:pch.1    0:nch.1    0:pch.1   
 region     Saturati   Saturati   Saturati   Saturati   Saturati   Saturati
  id      -2.137e-06  2.137e-06 -2.142e-06 -2.142e-06  2.142e-06 -2.134e-06
  ibs      2.959e-16 -3.418e-18  4.454e-19  2.959e-16 -3.426e-18  4.437e-19
  ibd      2.968e-16 -7.055e-15  2.061e-16  2.967e-16 -7.055e-15  2.061e-16
  vgs     -1.021e+00  6.679e-01 -1.026e+00 -1.021e+00  6.681e-01 -1.025e+00
  vds     -1.021e+00  6.679e-01 -1.026e+00 -1.021e+00  6.681e-01 -1.025e+00
  vbs      3.047e-01    0.         0.       3.029e-01    0.         0.     
  vth     -8.217e-01  5.378e-01 -7.668e-01 -8.213e-01  5.378e-01 -7.668e-01
  vdsat   -2.359e-01  1.564e-01 -2.831e-01 -2.361e-01  1.566e-01 -2.826e-01
  vod     -1.995e-01  1.301e-01 -2.594e-01 -1.997e-01  1.303e-01 -2.589e-01
  beta     8.693e-05  2.004e-04  5.640e-05  8.694e-05  2.004e-04  5.640e-05
  gam eff  3.974e-01  4.621e-01  3.892e-01  3.974e-01  4.621e-01  3.892e-01
  gm       1.770e-05  2.415e-05  1.433e-05  1.773e-05  2.418e-05  1.430e-05
  gds      1.211e-07  3.585e-08  1.167e-07  1.213e-07  3.590e-08  1.163e-07
  gmb      3.397e-06  7.208e-06  3.172e-06  3.404e-06  7.218e-06  3.166e-06
  cdtot    3.903e-15  6.496e-15  2.968e-15  3.904e-15  6.495e-15  2.968e-15
  cgtot    2.022e-14  8.206e-14  1.406e-14  2.022e-14  8.208e-14  1.406e-14
  cstot    2.554e-14  9.836e-14  1.839e-14  2.555e-14  9.839e-14  1.839e-14
  cbtot    1.345e-14  4.346e-14  1.082e-14  1.345e-14  4.346e-14  1.082e-14
  cgs      1.730e-14  6.907e-14  1.172e-14  1.730e-14  6.909e-14  1.172e-14
  cgd      5.582e-16  1.046e-15  3.751e-16  5.582e-16  1.046e-15  3.751e-16



 subckt   xtro.x2    xtro.x2   
 element  7:min      7:mn      
 model    0:pch.1    0:nch.1   
 region     Saturati   Saturati
  id      -2.134e-06  2.134e-06
  ibs      2.959e-16 -3.413e-18
  ibd      2.968e-16 -7.055e-15
  vgs     -1.022e+00  6.678e-01
  vds     -1.022e+00  6.678e-01
  vbs      3.102e-01    0.     
  vth     -8.227e-01  5.378e-01
  vdsat   -2.358e-01  1.563e-01
  vod     -1.993e-01  1.300e-01
  beta     8.691e-05  2.004e-04
  gam eff  3.974e-01  4.621e-01
  gm       1.769e-05  2.412e-05
  gds      1.209e-07  3.581e-08
  gmb      3.386e-06  7.201e-06
  cdtot    3.898e-15  6.496e-15
  cgtot    2.021e-14  8.205e-14
  cstot    2.552e-14  9.834e-14
  cbtot    1.342e-14  4.346e-14
  cgs      1.730e-14  6.905e-14
  cgd      5.582e-16  1.046e-15




          ***** job concluded
1****** HSPICE -- B-2008.09-SP1 32-BIT (Nov 24 2008) linux ******               
 ******  
  *all

  ******  job statistics summary tnom=  25.000 temp=  25.000 *****

  ******  HSPICE Threads Information  ******
  Command Line Threads Count:                      0
  Available CPU Count:                             8
  Actual Model Evaluation(Load) Threads Count:     1
  Actual Solver Threads Count:                     1


  ******  Circuit Statistics  ******
  # nodes       =     119  # elements   =      61
  # resistors   =       1  # capacitors =       2  # inductors   =       0
  # mutual_inds =       0  # vccs       =       0  # vcvs        =       0
  # cccs        =       0  # ccvs       =       0  # volt_srcs   =      16
  # curr_srcs   =       4  # diodes     =       0  # bjts        =       0
  # jfets       =       0  # mosfets    =      38  # U elements  =       0
  # T elements  =       0  # W elements =       0  # B elements  =       0
  # S elements  =       0  # P elements =       0  # va device   =       0


  ******  Runtime Statistics (seconds)  ******

  analysis           time    # points   tot. iter  conv.iter
  op point           0.01           1          63
  dc sweep           0.72        1479        3019
  ac analysis        0.33        9001        9001
  readin             0.01
  errchk             0.01
  setup              0.00
  output             0.00


           total memory used          863  kbytes
           total cpu time            1.08 seconds
           total elapsed time        1.23 seconds
           job started at     15:24:00 02/12/2016
           job ended   at     15:24:01 02/12/2016


1****** HSPICE -- B-2008.09-SP1 32-BIT (Nov 24 2008) linux ******               
 ******  
  * on vnw

  ******    alter processing listing tnom=  25.000 temp=  25.000 *****
 vfc vnw gnd dc = 0.63 ac = 1       * this value should be traced by .alter1
 .del lib 'test.l' all
 .lib 'test.l' vnw
 .dc vfc 0.2 1 0.01
 .ac dec 1000 1 1g
 *.pz v(to_out) vfc
 *cc nwd gnd 10p
 .probe ac vp(to_out)
 .endl

 .alter * on out
 $ alter processing continues $


 **warning**  the accurate option increases  the cpu time but the results
                are more accurate.
 ***accurate option sets default value of the options: 
 lvltim= 4         dvdt= 3       relvar= 200.00m absvar= 200.00m
     ft= 200.00m relmos=  10.00m
 (used for FFT control ) fft_accurate= 1
1****** HSPICE -- B-2008.09-SP1 32-BIT (Nov 24 2008) linux ******               
 ******  
  * on vnw

  ******  circuit name directory
 circuit number to circuit name directory
   number circuitname                     definition         multiplier
        0 main circuit
        1 xtri.                           tr                 1.00 
        2 xgm.                            gm                 1.00 
        3 xtro.                           gm                 1.00 
        4 xgm.x1.                         gmx                1.00 
        5 xgm.x2.                         gmx                1.00 
        6 xtro.x1.                        gmx                1.00 
        7 xtro.x2.                        gmx                1.00 
 
      
  Opening plot unit= 15
 file=new_loopTest.pa2                                                         

1****** HSPICE -- B-2008.09-SP1 32-BIT (Nov 24 2008) linux ******               
 ******  
  * on vnw

  ******  operating point information tnom=  25.000 temp=  25.000 *****
 ***** operating point status is all       simulation time is     0.     
    node    =voltage      node    =voltage      node    =voltage

 +0:c0      = 1.225e+00 0:cn      = 4.499e-01 0:cp      = 2.700e+00
 +0:cz      = 2.394e+00 0:gm_in   = 2.293e+00 0:gm_out  = 2.250e+00
 +0:nwd     = 9.599e-01 0:opb     = 2.000e+00 0:out     = 1.999e+00
 +0:ti_in   = 1.999e+00 0:ti_out  = 2.293e+00 0:to_in   = 2.250e+00
 +0:to_out  = 2.893e-01 0:vdd     = 3.300e+00 0:vdt     = 1.200e+00
 +0:vgn     = 1.800e+00 0:vgt     = 6.000e-01 0:vnw     = 6.300e-01
 +0:vsn     = 1.159e-01 0:vss     =   0.      0:vst     = 3.098e-02
 +1:1       = 5.968e-01 1:2       = 4.177e-01 1:b       = 2.832e+00
 +2:bd      = 2.756e+00 2:ggn     = 6.666e-01 2:ggp     = 6.683e-01
 +2:idn     = 6.666e-01 2:idp     = 6.683e-01 2:io1     = 1.978e+00
 +2:sdn     = 1.732e+00 2:sdp     = 1.729e+00 3:bd      = 2.734e+00
 +3:ggn     = 6.729e-01 3:ggp     = 6.624e-01 3:idn     = 6.729e-01
 +3:idp     = 6.624e-01 3:io1     = 2.003e+00 3:sdn     = 1.699e+00
 +3:sdp     = 1.717e+00


 maximum nodal capacitance=   1.003E-11         on node     0:gm_out          

    nodal  capacitance table 

    node    =    cap      node    =    cap      node    =    cap

 +0:c0      = 1.793e-14 0:cn      = 7.945e-14 0:cp      = 8.232e-14
 +0:cz      = 2.026e-13 0:gm_in   = 1.240e-14 0:gm_out  = 1.003e-11
 +0:nwd     = 2.602e-14 0:opb     = 9.853e-14 0:out     = 1.090e-14
 +0:ti_in   = 8.531e-14 0:ti_out  = 1.057e-12 0:to_in   = 1.250e-14
 +0:to_out  = 1.248e-14 0:vdd     = 1.129e-12 0:vdt     = 7.229e-15
 +0:vgn     = 1.142e-14 0:vgt     = 4.853e-15 0:vnw     = 8.850e-15
 +0:vsn     = 1.704e-14 0:vss     = 1.295e-12 0:vst     = 2.470e-14
 +1:1       = 9.661e-14 1:2       = 1.061e-12 1:b       = 2.952e-13
 +2:bd      = 6.577e-14 2:ggn     = 1.010e-13 2:ggp     = 1.012e-13
 +2:idn     = 3.035e-14 2:idp     = 3.040e-14 2:io1     = 1.717e-13
 +2:sdn     = 4.185e-14 2:sdp     = 4.196e-14 3:bd      = 6.572e-14
 +3:ggn     = 1.017e-13 3:ggp     = 1.005e-13 3:idn     = 3.065e-14
 +3:idp     = 3.035e-14 3:io1     = 1.718e-13 3:sdn     = 4.264e-14
 +3:sdp     = 4.186e-14

 

 ****  voltage sources

 subckt                                                                    
 element  0:vng      0:vc2      0:vc3      0:vc4      0:vfc      0:vopbias 
  volts    1.800e+00    0.         0.         0.       6.300e-01  2.000e+00
  current    0.      -1.469e-05  2.188e-12  2.122e-12    0.      -1.628e-12
  power      0.         0.         0.         0.         0.       3.256e-12

 subckt                                               xgm        xgm       
 element  0:vd       0:vs       0:vtg      0:vtd      2:v0       2:v1      
  volts    3.300e+00    0.       6.000e-01  1.200e+00    0.         0.     
  current -6.548e-05  6.898e-05    0.      -3.500e-06 -2.776e-17    0.     
  power    2.161e-04    0.         0.       4.200e-06    0.         0.     

 subckt   xtro       xtro      
 element  3:v0       3:v1      
  volts      0.         0.     
  current    0.      -1.388e-17
  power      0.         0.     

     total voltage source power dissipation=  2.203e-04       watts



 ***** current sources

 subckt                                   
 element  0:ic       0:ip       0:it      
  volts    2.700e+00  1.300e+00  3.098e-02
  current  5.000e-07  3.500e-06  3.500e-06
  power   -1.350e-06 -4.553e-06 -1.084e-07


     total current source power dissipation=-6.011e-06       watts

 **** resistors

 subckt   xtri      
 element  1:rl      
  r value  2.000e+04
  v drop   2.938e-01
  current  1.469e-05
  power    4.316e-06



 **** mosfets


 subckt                                                                    
 element  0:mc0      0:mc1      0:mc2      0:mc3      0:mcx      0:mcz     
 model    0:pch.3    0:pch.3    0:pch.6    0:nch.3    0:pch.5    0:nch.2   
 region       Cutoff     Cutoff   Saturati     Cutoff   Saturati     Cutoff
  id      -5.000e-07 -3.747e-07 -3.747e-07  3.747e-07 -6.069e-07  6.063e-07
  ibs      1.004e-19  7.527e-20  8.207e-20 -5.981e-19  1.329e-19 -9.126e-19
  ibd      3.331e-15  2.494e-12  1.159e-16 -2.153e-14  1.160e-16 -5.585e-10
  vgs     -5.993e-01 -5.993e-01 -7.753e-01  4.499e-01 -9.058e-01  4.499e-01
  vds     -5.993e-01 -2.074e+00 -7.753e-01  4.499e-01 -9.058e-01  2.394e+00
  vbs        0.         0.         0.         0.         0.         0.     
  vth     -7.198e-01 -6.799e-01 -7.454e-01  5.699e-01 -7.778e-01  5.635e-01
  vdsat   -4.893e-02 -5.365e-02 -1.021e-01  4.412e-02 -1.747e-01  4.465e-02
  vod      1.205e-01  8.054e-02 -2.990e-02 -1.199e-01 -1.280e-01 -1.136e-01
  beta     4.335e-03  1.252e-03  1.063e-04  8.618e-03  4.825e-05  6.708e-03
  gam eff  4.553e-01  4.553e-01  4.082e-01  5.577e-01  3.889e-01  4.720e-01
  gm       1.151e-05  8.252e-06  5.574e-06  9.828e-06  6.523e-06  1.525e-05
  gds      3.541e-07  2.330e-07  1.632e-07  1.620e-07  6.154e-08  8.384e-08
  gmb      2.576e-06  1.809e-06  1.177e-06  2.825e-06  1.414e-06  4.592e-06
  cdtot    5.072e-14  1.084e-14  1.895e-15  2.054e-14  1.835e-15  3.189e-14
  cgtot    2.458e-14  7.023e-15  9.699e-16  1.269e-14  3.685e-15  4.335e-14
  cstot    6.271e-14  1.792e-14  2.700e-15  2.275e-14  5.690e-15  4.284e-14
  cbtot    1.121e-13  2.838e-14  4.394e-15  4.318e-14  5.204e-15  9.314e-14
  cgs      6.469e-15  1.848e-15  3.889e-16  3.200e-15  2.762e-15  6.232e-15
  cgd      6.469e-15  1.848e-15  1.922e-16  3.200e-15  1.922e-16  6.232e-15



 subckt                                    xtri       xtri       xtri      
 element  0:mc       0:mnw      0:mt       1:mb       1:m1       1:m2      
 model    0:nch.3    0:nch.3    0:nch.3    0:pch.1    0:pch.1    0:pch.1   
 region     Saturati   Saturati   Saturati   Saturati   Saturati   Saturati
  id       1.819e-05  1.819e-05  3.500e-06 -1.001e-06 -5.013e-07 -4.993e-07
  ibs     -1.308e-14  7.396e-13 -5.488e-18  2.010e-19  1.024e-19  1.019e-19
  ibd     -5.216e-14 -1.141e-14 -2.146e-13  4.759e-16  3.284e-13  6.949e-13
  vgs      8.401e-01  6.300e-01  5.690e-01 -9.058e-01 -8.332e-01 -8.325e-01
  vds      1.039e+00  9.599e-01  1.169e+00 -4.675e-01 -2.235e+00 -2.414e+00
  vbs     -9.599e-01  1.159e-01    0.         0.         0.         0.     
  vth      7.837e-01  5.362e-01  5.649e-01 -7.520e-01 -7.564e-01 -7.561e-01
  vdsat    9.371e-02  1.086e-01  6.341e-02 -1.923e-01 -1.335e-01 -1.332e-01
  vod      5.642e-02  9.379e-02  4.080e-03 -1.538e-01 -7.672e-02 -7.634e-02
  beta     5.619e-03  3.400e-03  3.403e-03  6.424e-05  7.579e-05  7.580e-05
  gam eff  5.731e-01  5.589e-01  5.599e-01  4.097e-01  4.002e-01  4.002e-01
  gm       3.364e-04  2.825e-04  7.677e-05  9.660e-06  6.337e-06  6.319e-06
  gds      5.942e-06  3.917e-06  1.096e-06  4.185e-08  1.410e-08  1.392e-08
  gmb      6.279e-05  6.567e-05  2.092e-05  2.268e-06  1.503e-06  1.499e-06
  cdtot    1.090e-14  7.503e-15  7.229e-15  7.533e-15  6.749e-15  6.593e-15
  cgtot    1.142e-14  8.850e-15  4.853e-15  8.017e-14  8.531e-14  8.507e-14
  cstot    1.852e-14  1.621e-14  8.812e-15  9.611e-14  9.573e-14  9.535e-14
  cbtot    2.179e-14  1.704e-14  1.588e-14  4.098e-14  4.836e-14  4.819e-14
  cgs      7.374e-15  6.365e-15  1.252e-15  6.913e-14  6.723e-14  6.694e-14
  cgd      2.077e-15  1.252e-15  1.252e-15  9.242e-16  1.116e-15  1.116e-15



 subckt   xtri       xtri       xtri       xtri       xgm        xgm       
 element  1:m3       1:m4       1:ma1      1:ma2      2:mo3a     2:mo4a    
 model    0:nch.1    0:nch.1    0:pch.2    0:nch.2    0:pch.1    0:pch.1   
 region     Saturati   Saturati   Saturati     Cutoff   Saturati   Saturati
  id       5.013e-07  4.993e-07 -1.498e-05  2.905e-07 -9.323e-06 -9.280e-06
  ibs     -8.630e-19 -8.595e-19  2.977e-18 -4.254e-19  1.871e-18  1.862e-18
  ibd     -4.644e-15 -4.644e-15  1.517e-15 -1.736e-10  4.587e-16  4.579e-16
  vgs      5.968e-01  5.968e-01 -9.058e-01  4.177e-01 -1.321e+00 -1.321e+00
  vds      5.968e-01  4.177e-01 -1.006e+00  2.293e+00 -1.321e+00 -1.049e+00
  vbs        0.         0.         0.         0.         0.         0.     
  vth      5.345e-01  5.347e-01 -7.534e-01  5.654e-01 -7.510e-01 -7.515e-01
  vdsat    1.077e-01  1.076e-01 -1.968e-01  4.316e-02 -5.598e-01 -5.594e-01
  vod      6.231e-02  6.217e-02 -1.523e-01 -1.478e-01 -5.700e-01 -5.696e-01
  beta     1.171e-04  1.171e-04  9.117e-04  7.825e-03  5.771e-05  5.771e-05
  gam eff  4.547e-01  4.547e-01  3.952e-01  4.732e-01  4.091e-01  4.091e-01
  gm       7.539e-06  7.514e-06  1.488e-04  7.616e-06  2.969e-05  2.955e-05
  gds      1.048e-08  1.291e-08  1.527e-06  4.090e-08  1.391e-07  1.796e-07
  gmb      2.241e-06  2.233e-06  3.243e-05  2.321e-06  6.936e-06  6.902e-06
  cdtot    4.161e-15  4.285e-15  2.021e-14  3.629e-14  5.910e-15  6.247e-15
  cgtot    4.285e-14  4.285e-14  5.210e-14  4.984e-14  7.969e-14  7.969e-14
  cstot    4.684e-14  4.684e-14  7.919e-14  4.851e-14  9.644e-14  9.644e-14
  cbtot    2.665e-14  2.678e-14  5.662e-14  1.060e-13  3.770e-14  3.804e-14
  cgs      3.220e-14  3.220e-14  4.371e-14  7.167e-15  7.019e-14  7.019e-14
  cgd      6.333e-16  6.333e-16  2.946e-15  7.167e-15  8.876e-16  8.876e-16



 subckt   xgm        xgm        xgm        xtro       xtro       xtro      
 element  2:mo1      2:mo2      2:mb       3:mo3a     3:mo4a     3:mo1     
 model    0:nch.2    0:nch.2    0:pch.2    0:pch.1    0:pch.1    0:nch.2   
 region     Saturati   Saturati   Saturati   Saturati   Saturati   Saturati
  id       9.322e-06  9.277e-06 -4.253e-06 -8.618e-06 -8.779e-06  8.617e-06
  ibs     -1.469e-17 -1.461e-17  8.534e-19  1.730e-18  1.762e-18 -1.358e-17
  ibd     -6.333e-10 -3.032e-09  4.759e-16  4.586e-16  2.421e-11 -7.025e-10
  vgs      6.683e-01  6.666e-01 -9.058e-01 -1.297e+00 -1.297e+00  6.624e-01
  vds      1.978e+00  2.250e+00 -5.439e-01 -1.297e+00 -3.010e+00  2.003e+00
  vbs        0.         0.         0.         0.         0.         0.     
  vth      5.615e-01  5.609e-01 -7.589e-01 -7.511e-01 -7.481e-01  5.615e-01
  vdsat    1.281e-01  1.273e-01 -1.920e-01 -5.383e-01 -5.409e-01  1.240e-01
  vod      1.068e-01  1.057e-01 -1.469e-01 -5.459e-01 -5.489e-01  1.009e-01
  beta     1.237e-03  1.238e-03  2.799e-04  5.794e-05  5.796e-05  1.238e-03
  gam eff  4.699e-01  4.699e-01  3.951e-01  4.091e-01  4.091e-01  4.699e-01
  gm       1.239e-04  1.236e-04  4.299e-05  2.867e-05  2.910e-05  1.178e-04
  gds      5.992e-07  6.238e-07  5.771e-07  1.310e-07  7.600e-08  5.704e-07
  gmb      3.585e-05  3.576e-05  9.361e-06  6.691e-06  6.791e-06  3.410e-05
  cdtot    6.437e-15  6.322e-15  7.362e-15  5.937e-15  4.655e-15  6.426e-15
  cgtot    1.912e-14  1.906e-14  1.647e-14  7.969e-14  7.969e-14  1.891e-14
  cstot    2.709e-14  2.699e-14  2.507e-14  9.644e-14  9.644e-14  2.674e-14
  cbtot    1.924e-14  1.912e-14  1.921e-14  3.776e-14  3.648e-14  1.921e-14
  cgs      1.517e-14  1.510e-14  1.367e-14  7.016e-14  7.016e-14  1.491e-14
  cgd      1.190e-15  1.190e-15  9.242e-16  8.876e-16  8.876e-16  1.190e-15



 subckt   xtro       xtro       xgm.x1     xgm.x1     xgm.x1     xgm.x2    
 element  3:mo2      3:mb       4:ms       4:min      4:mn       5:ms      
 model    0:nch.2    0:pch.2    0:pch.1    0:pch.1    0:nch.1    0:pch.1   
 region     Saturati   Saturati   Saturati   Saturati   Saturati   Saturati
  id       8.779e-06 -4.265e-06 -2.147e-06 -2.147e-06  2.147e-06 -2.106e-06
  ibs     -1.383e-17  8.560e-19  4.464e-19  2.959e-16 -3.434e-18  4.379e-19
  ibd     -7.899e-15  4.759e-16  2.061e-16  2.984e-16 -7.055e-15  2.061e-16
  vgs      6.729e-01 -9.058e-01 -1.026e+00 -1.061e+00  6.683e-01 -1.023e+00
  vds      2.893e-01 -5.658e-01 -1.026e+00 -1.061e+00  6.683e-01 -1.023e+00
  vbs        0.         0.         0.       5.212e-01    0.         0.     
  vth      5.652e-01 -7.588e-01 -7.668e-01 -8.604e-01  5.378e-01 -7.668e-01
  vdsat    1.287e-01 -1.921e-01 -2.834e-01 -2.387e-01  1.567e-01 -2.809e-01
  vod      1.077e-01 -1.470e-01 -2.598e-01 -2.008e-01  1.305e-01 -2.569e-01
  beta     1.236e-03  2.799e-04  5.639e-05  8.584e-05  2.004e-04  5.642e-05
  gam eff  4.699e-01  3.951e-01  3.892e-01  3.974e-01  4.621e-01  3.892e-01
  gm       1.179e-04  4.310e-05  1.435e-05  1.777e-05  2.422e-05  1.421e-05
  gds      1.294e-06  5.668e-07  1.169e-07  1.192e-07  3.596e-08  1.153e-07
  gmb      3.406e-05  9.386e-06  3.176e-06  3.127e-06  7.228e-06  3.145e-06
  cdtot    7.822e-15  7.316e-15  2.968e-15  3.726e-15  6.495e-15  2.970e-15
  cgtot    1.926e-14  1.647e-14  1.406e-14  2.018e-14  8.210e-14  1.405e-14
  cstot    2.733e-14  2.507e-14  1.839e-14  2.494e-14  9.842e-14  1.839e-14
  cbtot    2.064e-14  1.916e-14  1.082e-14  1.254e-14  4.346e-14  1.082e-14
  cgs      1.536e-14  1.367e-14  1.172e-14  1.737e-14  6.911e-14  1.171e-14
  cgd      1.190e-15  9.242e-16  3.751e-16  5.582e-16  1.046e-15  3.751e-16



 subckt   xgm.x2     xgm.x2     xtro.x1    xtro.x1    xtro.x1    xtro.x2   
 element  5:min      5:mn       6:ms       6:min      6:mn       7:ms      
 model    0:pch.1    0:nch.1    0:pch.1    0:pch.1    0:nch.1    0:pch.1   
 region     Saturati   Saturati   Saturati   Saturati   Saturati   Saturati
  id      -2.106e-06  2.106e-06 -2.006e-06 -2.006e-06  2.006e-06 -2.260e-06
  ibs      2.959e-16 -3.368e-18  4.171e-19  2.959e-16 -3.208e-18  4.699e-19
  ibd      2.988e-16 -7.055e-15  2.061e-16  2.983e-16 -7.055e-15  2.062e-16
  vgs     -1.065e+00  6.666e-01 -1.016e+00 -1.055e+00  6.624e-01 -1.034e+00
  vds     -1.065e+00  6.666e-01 -1.016e+00 -1.055e+00  6.624e-01 -1.034e+00
  vbs      5.607e-01    0.         0.       5.332e-01    0.         0.     
  vth     -8.671e-01  5.378e-01 -7.669e-01 -8.624e-01  5.378e-01 -7.668e-01
  vdsat   -2.370e-01  1.555e-01 -2.747e-01 -2.316e-01  1.523e-01 -2.902e-01
  vod     -1.986e-01  1.288e-01 -2.498e-01 -1.928e-01  1.246e-01 -2.675e-01
  beta     8.568e-05  2.004e-04  5.647e-05  8.588e-05  2.005e-04  5.633e-05
  gam eff  3.974e-01  4.621e-01  3.892e-01  3.974e-01  4.621e-01  3.892e-01
  gm       1.759e-05  2.393e-05  1.385e-05  1.712e-05  2.320e-05  1.473e-05
  gds      1.173e-07  3.550e-08  1.114e-07  1.135e-07  3.436e-08  1.211e-07
  gmb      3.051e-06  7.142e-06  3.066e-06  2.999e-06  6.927e-06  3.261e-06
  cdtot    3.698e-15  6.497e-15  2.974e-15  3.722e-15  6.501e-15  2.963e-15
  cgtot    2.016e-14  8.195e-14  1.404e-14  2.012e-14  8.156e-14  1.407e-14
  cstot    2.482e-14  9.817e-14  1.837e-14  2.484e-14  9.750e-14  1.840e-14
  cbtot    1.240e-14  4.345e-14  1.082e-14  1.250e-14  4.343e-14  1.081e-14
  cgs      1.737e-14  6.892e-14  1.170e-14  1.732e-14  6.841e-14  1.173e-14
  cgd      5.582e-16  1.046e-15  3.751e-16  5.582e-16  1.046e-15  3.751e-16



 subckt   xtro.x2    xtro.x2   
 element  7:min      7:mn      
 model    0:pch.1    0:nch.1   
 region     Saturati   Saturati
  id      -2.260e-06  2.260e-06
  ibs      2.959e-16 -3.614e-18
  ibd      2.968e-16 -7.055e-15
  vgs     -1.027e+00  6.729e-01
  vds     -1.027e+00  6.729e-01
  vbs      3.001e-01    0.     
  vth     -8.208e-01  5.378e-01
  vdsat   -2.418e-01  1.602e-01
  vod     -2.063e-01  1.351e-01
  beta     8.687e-05  2.003e-04
  gam eff  3.974e-01  4.621e-01
  gm       1.826e-05  2.501e-05
  gds      1.260e-07  3.720e-08
  gmb      3.509e-06  7.460e-06
  cdtot    3.902e-15  6.491e-15
  cgtot    2.025e-14  8.247e-14
  cstot    2.561e-14  9.906e-14
  cbtot    1.346e-14  4.349e-14
  cgs      1.734e-14  6.960e-14
  cgd      5.582e-16  1.046e-15




          ***** job concluded
1****** HSPICE -- B-2008.09-SP1 32-BIT (Nov 24 2008) linux ******               
 ******  
  * on vnw

  ******  job statistics summary tnom=  25.000 temp=  25.000 *****

  ******  HSPICE Threads Information  ******
  Command Line Threads Count:                      0
  Available CPU Count:                             8
  Actual Model Evaluation(Load) Threads Count:     1
  Actual Solver Threads Count:                     1


  ******  Circuit Statistics  ******
  # nodes       =     119  # elements   =      60
  # resistors   =       1  # capacitors =       2  # inductors   =       0
  # mutual_inds =       0  # vccs       =       0  # vcvs        =       0
  # cccs        =       0  # ccvs       =       0  # volt_srcs   =      16
  # curr_srcs   =       3  # diodes     =       0  # bjts        =       0
  # jfets       =       0  # mosfets    =      38  # U elements  =       0
  # T elements  =       0  # W elements =       0  # B elements  =       0
  # S elements  =       0  # P elements =       0  # va device   =       0


  ******  Runtime Statistics (seconds)  ******

  analysis           time    # points   tot. iter  conv.iter
  op point           0.02           1         159
  dc sweep           0.03          81         299
  ac analysis        0.34        9001        9001
  readin             0.02
  errchk             0.02
  setup              0.00
  output             0.00


           total memory used          839  kbytes
           total cpu time            0.43 seconds
           total elapsed time        0.51 seconds
           job started at     15:24:00 02/12/2016
           job ended   at     15:24:02 02/12/2016


1****** HSPICE -- B-2008.09-SP1 32-BIT (Nov 24 2008) linux ******               
 ******  
  * on out

  ******    alter processing listing tnom=  25.000 temp=  25.000 *****
 vfc to_out vnw dc = 1.5
 vc2 in ti_in dc = 0
 .del lib 'test.l' vnw
 .lib 'test.l' out
 .dc inw dec 1000 10n 1u
 .ac dec 1000 1 1g
 inw vdd in dc = 100n  ac = 1
 rin in gnd 10x              * this will equal to gmroro
 eo  ro gnd opamp opb ro
 rout out ro 20             * ths will euqal to rl_tr/av = 20k/1000
 .probe i(eo)
 .endl

 .alter * on gm_in
 $ alter processing continues $


 **warning**  the accurate option increases  the cpu time but the results
                are more accurate.
 ***accurate option sets default value of the options: 
 lvltim= 4         dvdt= 3       relvar= 200.00m absvar= 200.00m
     ft= 200.00m relmos=  10.00m
 (used for FFT control ) fft_accurate= 1
1****** HSPICE -- B-2008.09-SP1 32-BIT (Nov 24 2008) linux ******               
 ******  
  * on out

  ******  circuit name directory
 circuit number to circuit name directory
   number circuitname                     definition         multiplier
        0 main circuit
        1 xtri.                           tr                 1.00 
        2 xgm.                            gm                 1.00 
        3 xtro.                           gm                 1.00 
        4 xgm.x1.                         gmx                1.00 
        5 xgm.x2.                         gmx                1.00 
        6 xtro.x1.                        gmx                1.00 
        7 xtro.x2.                        gmx                1.00 
 
      
  Opening plot unit= 15
 file=new_loopTest.pa3                                                         

1****** HSPICE -- B-2008.09-SP1 32-BIT (Nov 24 2008) linux ******               
 ******  
  * on out

  ******  operating point information tnom=  25.000 temp=  25.000 *****
 ***** operating point status is all       simulation time is     0.     
    node    =voltage      node    =voltage      node    =voltage

 +0:c0      = 1.225e+00 0:cn      = 4.499e-01 0:cp      = 2.700e+00
 +0:cz      = 2.394e+00 0:gm_in   = 2.002e+00 0:gm_out  = 1.999e+00
 +0:in      = 2.000e+00 0:nwd     = 1.064e+00 0:opb     = 2.000e+00
 +0:out     = 2.000e+00 0:ro      = 2.000e+00 0:ti_in   = 2.000e+00
 +0:ti_out  = 2.002e+00 0:to_in   = 1.999e+00 0:to_out  = 1.985e+00
 +0:vdd     = 3.300e+00 0:vdt     = 1.200e+00 0:vgn     = 1.800e+00
 +0:vgt     = 6.000e-01 0:vnw     = 4.852e-01 0:vsn     = 1.191e-01
 +0:vss     =   0.      0:vst     = 3.098e-02 1:1       = 5.967e-01
 +1:2       = 5.902e-01 1:b       = 2.833e+00 2:bd      = 2.716e+00
 +2:ggn     = 6.679e-01 2:ggp     = 6.680e-01 2:idn     = 6.679e-01
 +2:idp     = 6.680e-01 2:io1     = 1.980e+00 2:sdn     = 1.690e+00
 +2:sdp     = 1.690e+00 3:bd      = 2.716e+00 3:ggn     = 6.679e-01
 +3:ggp     = 6.679e-01 3:idn     = 6.679e-01 3:idp     = 6.679e-01
 +3:io1     = 1.980e+00 3:sdn     = 1.690e+00 3:sdp     = 1.690e+00


 maximum nodal capacitance=   1.003E-11         on node     0:gm_out          

    nodal  capacitance table 

    node    =    cap      node    =    cap      node    =    cap

 +0:c0      = 1.793e-14 0:cn      = 7.945e-14 0:cp      = 8.232e-14
 +0:cz      = 2.026e-13 0:gm_in   = 1.341e-14 0:gm_out  = 1.003e-11
 +0:in      =   0.      0:nwd     = 1.924e-14 0:opb     = 9.867e-14
 +0:out     = 1.090e-14 0:ro      =   0.      0:ti_in   = 8.526e-14
 +0:ti_out  = 1.056e-12 0:to_in   = 1.342e-14 0:to_out  = 1.235e-14
 +0:vdd     = 1.129e-12 0:vdt     = 7.229e-15 0:vgn     = 7.001e-15
 +0:vgt     = 4.853e-15 0:vnw     = 5.028e-15 0:vsn     = 1.656e-14
 +0:vss     = 1.329e-12 0:vst     = 2.470e-14 1:1       = 9.656e-14
 +1:2       = 1.083e-12 1:b       = 2.955e-13 2:bd      = 6.569e-14
 +2:ggn     = 1.012e-13 2:ggp     = 1.012e-13 2:idn     = 3.061e-14
 +2:idp     = 3.061e-14 2:io1     = 1.717e-13 2:sdn     = 4.255e-14
 +2:sdp     = 4.255e-14 3:bd      = 6.569e-14 3:ggn     = 1.012e-13
 +3:ggp     = 1.012e-13 3:idn     = 3.061e-14 3:idp     = 3.061e-14
 +3:io1     = 1.717e-13 3:sdn     = 4.255e-14 3:sdp     = 4.255e-14

 

 ****  voltage sources

 subckt                                                                    
 element  0:vng      0:vc2      0:vc3      0:vc4      0:vfc      0:vopbias 
  volts    1.800e+00    0.         0.         0.       1.500e+00  2.000e+00
  current    0.      -1.000e-07  1.646e-12  1.641e-12  1.110e-16 -1.643e-12
  power      0.         0.         0.         0.      -1.665e-16  3.285e-12

 subckt                                               xgm        xgm       
 element  0:vd       0:vs       0:vtg      0:vtd      2:v0       2:v1      
  volts    3.300e+00    0.       6.000e-01  1.200e+00    0.         0.     
  current -6.716e-05  6.795e-05    0.      -3.500e-06 -2.776e-17    0.     
  power    2.216e-04    0.         0.       4.200e-06    0.         0.     

 subckt   xtro       xtro      
 element  3:v0       3:v1      
  volts      0.         0.     
  current  2.776e-17 -1.388e-17
  power      0.         0.     

     total voltage source power dissipation=  2.258e-04       watts



 ***** current sources

 subckt                                              
 element  0:ic       0:ip       0:it       0:inw     
  volts    2.700e+00  1.299e+00  3.098e-02  1.300e+00
  current  5.000e-07  3.500e-06  3.500e-06  1.000e-07
  power   -1.350e-06 -4.550e-06 -1.084e-07 -1.300e-07


     total current source power dissipation=-6.139e-06       watts

 **** resistors

 subckt                         xtri      
 element  0:rin      0:rout     1:rl      
  r value  1.000e+07  2.000e+01  2.000e+04
  v drop   2.000e+00  5.021e-05  2.000e-03
  current  2.000e-07  2.511e-06  1.000e-07
  power    4.000e-07  1.261e-10  2.000e-10


 **** voltage-controlled voltage sources


 subckt             
 element  0:eo      
  volts    2.000e+00
  current  2.511e-06





 **** mosfets


 subckt                                                                    
 element  0:mc0      0:mc1      0:mc2      0:mc3      0:mcx      0:mcz     
 model    0:pch.3    0:pch.3    0:pch.6    0:nch.3    0:pch.5    0:nch.2   
 region       Cutoff     Cutoff   Saturati     Cutoff   Saturati     Cutoff
  id      -5.000e-07 -3.747e-07 -3.747e-07  3.747e-07 -6.069e-07  6.063e-07
  ibs      1.004e-19  7.527e-20  8.207e-20 -5.981e-19  1.329e-19 -9.126e-19
  ibd      3.331e-15  2.494e-12  1.159e-16 -2.153e-14  1.160e-16 -5.585e-10
  vgs     -5.993e-01 -5.993e-01 -7.753e-01  4.499e-01 -9.058e-01  4.499e-01
  vds     -5.993e-01 -2.074e+00 -7.753e-01  4.499e-01 -9.058e-01  2.394e+00
  vbs        0.         0.         0.         0.         0.         0.     
  vth     -7.198e-01 -6.799e-01 -7.454e-01  5.699e-01 -7.778e-01  5.635e-01
  vdsat   -4.893e-02 -5.365e-02 -1.021e-01  4.412e-02 -1.747e-01  4.465e-02
  vod      1.205e-01  8.054e-02 -2.990e-02 -1.199e-01 -1.280e-01 -1.136e-01
  beta     4.335e-03  1.252e-03  1.063e-04  8.618e-03  4.825e-05  6.708e-03
  gam eff  4.553e-01  4.553e-01  4.082e-01  5.577e-01  3.889e-01  4.720e-01
  gm       1.151e-05  8.252e-06  5.574e-06  9.828e-06  6.523e-06  1.525e-05
  gds      3.541e-07  2.330e-07  1.632e-07  1.620e-07  6.154e-08  8.384e-08
  gmb      2.576e-06  1.809e-06  1.177e-06  2.825e-06  1.414e-06  4.592e-06
  cdtot    5.072e-14  1.084e-14  1.895e-15  2.054e-14  1.835e-15  3.189e-14
  cgtot    2.458e-14  7.023e-15  9.699e-16  1.269e-14  3.685e-15  4.335e-14
  cstot    6.271e-14  1.792e-14  2.700e-15  2.275e-14  5.690e-15  4.284e-14
  cbtot    1.121e-13  2.838e-14  4.394e-15  4.318e-14  5.204e-15  9.314e-14
  cgs      6.469e-15  1.848e-15  3.889e-16  3.200e-15  2.762e-15  6.232e-15
  cgd      6.469e-15  1.848e-15  1.922e-16  3.200e-15  1.922e-16  6.232e-15



 subckt                                    xtri       xtri       xtri      
 element  0:mc       0:mnw      0:mt       1:mb       1:m1       1:m2      
 model    0:nch.3    0:nch.3    0:nch.3    0:pch.1    0:pch.1    0:pch.1   
 region       Cutoff     Cutoff   Saturati   Saturati   Saturati   Saturati
  id       9.894e-07  9.894e-07  3.500e-06 -1.001e-06 -5.003e-07 -5.003e-07
  ibs     -1.308e-14  8.448e-13 -5.488e-18  2.009e-19  1.022e-19  1.021e-19
  ibd     -1.353e-14 -1.835e-14 -2.146e-13  4.759e-16  3.289e-13  3.387e-13
  vgs      7.353e-01  4.852e-01  5.690e-01 -9.058e-01 -8.330e-01 -8.330e-01
  vds      9.353e-01  1.064e+00  1.169e+00 -4.670e-01 -2.236e+00 -2.242e+00
  vbs     -1.064e+00  1.191e-01    0.         0.         0.         0.     
  vth      8.043e-01  5.347e-01  5.649e-01 -7.520e-01 -7.564e-01 -7.564e-01
  vdsat    4.991e-02  4.961e-02  6.341e-02 -1.923e-01 -1.334e-01 -1.333e-01
  vod     -6.907e-02 -4.949e-02  4.080e-03 -1.538e-01 -7.657e-02 -7.655e-02
  beta     5.630e-03  3.416e-03  3.403e-03  6.424e-05  7.579e-05  7.579e-05
  gam eff  5.738e-01  5.588e-01  5.599e-01  4.097e-01  4.002e-01  4.002e-01
  gm       2.617e-05  2.364e-05  7.677e-05  9.660e-06  6.328e-06  6.327e-06
  gds      4.895e-07  3.420e-07  1.096e-06  4.190e-08  1.408e-08  1.407e-08
  gmb      4.828e-06  5.692e-06  2.092e-05  2.268e-06  1.501e-06  1.501e-06
  cdtot    1.090e-14  7.410e-15  7.229e-15  7.534e-15  6.749e-15  6.743e-15
  cgtot    7.001e-15  5.028e-15  4.853e-15  8.017e-14  8.526e-14  8.525e-14
  cstot    1.183e-14  9.127e-15  8.812e-15  9.611e-14  9.564e-14  9.563e-14
  cbtot    2.142e-14  1.656e-14  1.588e-14  4.098e-14  4.836e-14  4.835e-14
  cgs      2.077e-15  1.252e-15  1.252e-15  6.913e-14  6.716e-14  6.715e-14
  cgd      2.077e-15  1.252e-15  1.252e-15  9.242e-16  1.116e-15  1.116e-15



 subckt   xtri       xtri       xtri       xtri       xgm        xgm       
 element  1:m3       1:m4       1:ma1      1:ma2      2:mo3a     2:mo4a    
 model    0:nch.1    0:nch.1    0:pch.2    0:nch.2    0:pch.1    0:pch.1   
 region     Saturati   Saturati   Saturati   Saturati   Saturati   Saturati
  id       5.003e-07  5.003e-07 -1.541e-05  1.531e-05 -9.284e-06 -9.281e-06
  ibs     -8.613e-19 -8.612e-19  3.062e-18 -2.241e-17  1.863e-18  1.862e-18
  ibd     -4.644e-15 -4.644e-15  1.312e-14 -1.652e-09  4.587e-16  4.583e-16
  vgs      5.967e-01  5.967e-01 -9.058e-01  5.902e-01 -1.319e+00 -1.319e+00
  vds      5.967e-01  5.902e-01 -1.298e+00  2.002e+00 -1.319e+00 -1.300e+00
  vbs        0.         0.         0.         0.         0.         0.     
  vth      5.345e-01  5.345e-01 -7.515e-01  5.661e-01 -7.510e-01 -7.511e-01
  vdsat    1.076e-01  1.076e-01 -1.985e-01  7.787e-02 -5.587e-01 -5.586e-01
  vod      6.218e-02  6.217e-02 -1.543e-01  2.408e-02 -5.687e-01 -5.687e-01
  beta     1.171e-04  1.171e-04  9.120e-04  7.794e-03  5.773e-05  5.773e-05
  gam eff  4.547e-01  4.547e-01  3.952e-01  4.732e-01  4.091e-01  4.091e-01
  gm       7.528e-06  7.527e-06  1.520e-04  2.925e-04  2.964e-05  2.963e-05
  gds      1.046e-08  1.050e-08  1.423e-06  1.463e-06  1.387e-07  1.406e-07
  gmb      2.238e-06  2.237e-06  3.312e-05  8.524e-05  6.922e-06  6.920e-06
  cdtot    4.161e-15  4.165e-15  1.903e-14  3.700e-14  5.911e-15  5.933e-15
  cgtot    4.283e-14  4.283e-14  5.210e-14  7.238e-14  7.969e-14  7.969e-14
  cstot    4.679e-14  4.679e-14  7.919e-14  9.039e-14  9.644e-14  9.644e-14
  cbtot    2.665e-14  2.666e-14  5.543e-14  1.070e-13  3.770e-14  3.773e-14
  cgs      3.217e-14  3.217e-14  4.371e-14  3.843e-14  7.019e-14  7.019e-14
  cgd      6.333e-16  6.333e-16  2.946e-15  7.167e-15  8.876e-16  8.876e-16



 subckt   xgm        xgm        xgm        xtro       xtro       xtro      
 element  2:mo1      2:mo2      2:mb       3:mo3a     3:mo4a     3:mo1     
 model    0:nch.2    0:nch.2    0:pch.2    0:pch.1    0:pch.1    0:nch.2   
 region     Saturati   Saturati   Saturati   Saturati   Saturati   Saturati
  id       9.283e-06  9.280e-06 -4.275e-06 -9.279e-06 -9.278e-06  9.278e-06
  ibs     -1.462e-17 -1.462e-17  8.580e-19  1.862e-18  1.862e-18 -1.462e-17
  ibd     -6.370e-10 -7.213e-10  4.759e-16  4.587e-16  4.586e-16 -6.375e-10
  vgs      6.680e-01  6.679e-01 -9.058e-01 -1.319e+00 -1.319e+00  6.679e-01
  vds      1.980e+00  1.999e+00 -5.839e-01 -1.319e+00 -1.314e+00  1.980e+00
  vbs        0.         0.         0.         0.         0.         0.     
  vth      5.615e-01  5.615e-01 -7.586e-01 -7.510e-01 -7.510e-01  5.615e-01
  vdsat    1.278e-01  1.278e-01 -1.922e-01 -5.585e-01 -5.585e-01  1.278e-01
  vod      1.065e-01  1.064e-01 -1.471e-01 -5.686e-01 -5.685e-01  1.064e-01
  beta     1.237e-03  1.237e-03  2.799e-04  5.773e-05  5.773e-05  1.237e-03
  gam eff  4.699e-01  4.699e-01  3.951e-01  4.091e-01  4.091e-01  4.699e-01
  gm       1.236e-04  1.236e-04  4.319e-05  2.963e-05  2.963e-05  1.236e-04
  gds      5.976e-07  5.985e-07  5.590e-07  1.386e-07  1.391e-07  5.974e-07
  gmb      3.575e-05  3.575e-05  9.405e-06  6.921e-06  6.920e-06  3.574e-05
  cdtot    6.436e-15  6.428e-15  7.278e-15  5.912e-15  5.917e-15  6.436e-15
  cgtot    1.911e-14  1.910e-14  1.647e-14  7.969e-14  7.969e-14  1.911e-14
  cstot    2.707e-14  2.706e-14  2.507e-14  9.644e-14  9.644e-14  2.707e-14
  cbtot    1.924e-14  1.923e-14  1.913e-14  3.770e-14  3.771e-14  1.924e-14
  cgs      1.516e-14  1.516e-14  1.367e-14  7.019e-14  7.019e-14  1.516e-14
  cgd      1.190e-15  1.190e-15  9.242e-16  8.876e-16  8.876e-16  1.190e-15



 subckt   xtro       xtro       xgm.x1     xgm.x1     xgm.x1     xgm.x2    
 element  3:mo2      3:mb       4:ms       4:min      4:mn       5:ms      
 model    0:nch.2    0:pch.2    0:pch.1    0:pch.1    0:nch.1    0:pch.1   
 region     Saturati   Saturati   Saturati   Saturati   Saturati   Saturati
  id       9.278e-06 -4.275e-06 -2.139e-06 -2.139e-06  2.139e-06 -2.136e-06
  ibs     -1.462e-17  8.580e-19  4.448e-19  2.959e-16 -3.421e-18  4.442e-19
  ibd     -6.577e-10  4.759e-16  2.061e-16  2.968e-16 -7.055e-15  2.061e-16
  vgs      6.679e-01 -9.058e-01 -1.026e+00 -1.022e+00  6.680e-01 -1.025e+00
  vds      1.985e+00 -5.840e-01 -1.026e+00 -1.022e+00  6.680e-01 -1.025e+00
  vbs        0.         0.         0.       3.092e-01    0.         0.     
  vth      5.615e-01 -7.586e-01 -7.668e-01 -8.225e-01  5.378e-01 -7.668e-01
  vdsat    1.278e-01 -1.922e-01 -2.829e-01 -2.360e-01  1.565e-01 -2.828e-01
  vod      1.064e-01 -1.471e-01 -2.592e-01 -1.996e-01  1.302e-01 -2.590e-01
  beta     1.237e-03  2.799e-04  5.640e-05  8.691e-05  2.004e-04  5.640e-05
  gam eff  4.699e-01  3.951e-01  3.892e-01  3.974e-01  4.621e-01  3.892e-01
  gm       1.235e-04  4.319e-05  1.432e-05  1.771e-05  2.416e-05  1.431e-05
  gds      5.976e-07  5.590e-07  1.166e-07  1.211e-07  3.587e-08  1.164e-07
  gmb      3.574e-05  9.405e-06  3.170e-06  3.392e-06  7.212e-06  3.168e-06
  cdtot    6.434e-15  7.277e-15  2.968e-15  3.899e-15  6.495e-15  2.968e-15
  cgtot    1.910e-14  1.647e-14  1.406e-14  2.022e-14  8.207e-14  1.406e-14
  cstot    2.706e-14  2.507e-14  1.839e-14  2.553e-14  9.838e-14  1.839e-14
  cbtot    1.924e-14  1.913e-14  1.082e-14  1.342e-14  4.346e-14  1.082e-14
  cgs      1.516e-14  1.367e-14  1.172e-14  1.730e-14  6.908e-14  1.172e-14
  cgd      1.190e-15  9.242e-16  3.751e-16  5.582e-16  1.046e-15  3.751e-16



 subckt   xgm.x2     xgm.x2     xtro.x1    xtro.x1    xtro.x1    xtro.x2   
 element  5:min      5:mn       6:ms       6:min      6:mn       7:ms      
 model    0:pch.1    0:nch.1    0:pch.1    0:pch.1    0:nch.1    0:pch.1   
 region     Saturati   Saturati   Saturati   Saturati   Saturati   Saturati
  id      -2.136e-06  2.136e-06 -2.138e-06 -2.138e-06  2.138e-06 -2.137e-06
  ibs      2.959e-16 -3.417e-18  4.446e-19  2.959e-16 -3.420e-18  4.445e-19
  ibd      2.968e-16 -7.055e-15  2.061e-16  2.968e-16 -7.055e-15  2.061e-16
  vgs     -1.022e+00  6.679e-01 -1.026e+00 -1.022e+00  6.679e-01 -1.025e+00
  vds     -1.022e+00  6.679e-01 -1.026e+00 -1.022e+00  6.679e-01 -1.025e+00
  vbs      3.117e-01    0.         0.       3.093e-01    0.         0.     
  vth     -8.230e-01  5.378e-01 -7.668e-01 -8.225e-01  5.378e-01 -7.668e-01
  vdsat   -2.359e-01  1.564e-01 -2.829e-01 -2.360e-01  1.565e-01 -2.828e-01
  vod     -1.995e-01  1.301e-01 -2.592e-01 -1.995e-01  1.301e-01 -2.591e-01
  beta     8.690e-05  2.004e-04  5.640e-05  8.691e-05  2.004e-04  5.640e-05
  gam eff  3.974e-01  4.621e-01  3.892e-01  3.974e-01  4.621e-01  3.892e-01
  gm       1.770e-05  2.414e-05  1.432e-05  1.771e-05  2.416e-05  1.432e-05
  gds      1.210e-07  3.584e-08  1.165e-07  1.211e-07  3.586e-08  1.165e-07
  gmb      3.386e-06  7.206e-06  3.169e-06  3.391e-06  7.210e-06  3.169e-06
  cdtot    3.897e-15  6.496e-15  2.968e-15  3.899e-15  6.495e-15  2.968e-15
  cgtot    2.022e-14  8.206e-14  1.406e-14  2.022e-14  8.207e-14  1.406e-14
  cstot    2.552e-14  9.836e-14  1.839e-14  2.553e-14  9.837e-14  1.839e-14
  cbtot    1.341e-14  4.346e-14  1.082e-14  1.342e-14  4.346e-14  1.082e-14
  cgs      1.730e-14  6.907e-14  1.172e-14  1.730e-14  6.907e-14  1.172e-14
  cgd      5.582e-16  1.046e-15  3.751e-16  5.582e-16  1.046e-15  3.751e-16



 subckt   xtro.x2    xtro.x2   
 element  7:min      7:mn      
 model    0:pch.1    0:nch.1   
 region     Saturati   Saturati
  id      -2.137e-06  2.137e-06
  ibs      2.959e-16 -3.418e-18
  ibd      2.968e-16 -7.055e-15
  vgs     -1.022e+00  6.679e-01
  vds     -1.022e+00  6.679e-01
  vbs      3.099e-01    0.     
  vth     -8.226e-01  5.378e-01
  vdsat   -2.359e-01  1.565e-01
  vod     -1.995e-01  1.301e-01
  beta     8.690e-05  2.004e-04
  gam eff  3.974e-01  4.621e-01
  gm       1.771e-05  2.415e-05
  gds      1.210e-07  3.585e-08
  gmb      3.389e-06  7.208e-06
  cdtot    3.898e-15  6.496e-15
  cgtot    2.022e-14  8.207e-14
  cstot    2.553e-14  9.837e-14
  cbtot    1.342e-14  4.346e-14
  cgs      1.730e-14  6.907e-14
  cgd      5.582e-16  1.046e-15




          ***** job concluded
1****** HSPICE -- B-2008.09-SP1 32-BIT (Nov 24 2008) linux ******               
 ******  
  * on out

  ******  job statistics summary tnom=  25.000 temp=  25.000 *****

  ******  HSPICE Threads Information  ******
  Command Line Threads Count:                      0
  Available CPU Count:                             8
  Actual Model Evaluation(Load) Threads Count:     1
  Actual Solver Threads Count:                     1


  ******  Circuit Statistics  ******
  # nodes       =     121  # elements   =      64
  # resistors   =       3  # capacitors =       2  # inductors   =       0
  # mutual_inds =       0  # vccs       =       0  # vcvs        =       1
  # cccs        =       0  # ccvs       =       0  # volt_srcs   =      16
  # curr_srcs   =       4  # diodes     =       0  # bjts        =       0
  # jfets       =       0  # mosfets    =      38  # U elements  =       0
  # T elements  =       0  # W elements =       0  # B elements  =       0
  # S elements  =       0  # P elements =       0  # va device   =       0


  ******  Runtime Statistics (seconds)  ******

  analysis           time    # points   tot. iter  conv.iter
  op point           0.01           1          53
  dc sweep           0.50        2001        4053
  ac analysis        0.35        9001        9001
  readin             0.02
  errchk             0.01
  setup              0.00
  output             0.00


           total memory used          871  kbytes
           total cpu time            0.89 seconds
           total elapsed time        0.96 seconds
           job started at     15:24:00 02/12/2016
           job ended   at     15:24:03 02/12/2016


1****** HSPICE -- B-2008.09-SP1 32-BIT (Nov 24 2008) linux ******               
[...]
  # T elements  =       0  # W elements =       0  # B elements  =       0
  # S elements  =       0  # P elements =       0  # va device   =       0


  ******  Runtime Statistics (seconds)  ******

  analysis           time    # points   tot. iter  conv.iter
  op point           0.05           1          54
  dc sweep           0.06          81         488
  ac analysis        0.34        9001        9001
  readin             0.01
  errchk             0.02
  setup              0.00
  output             0.00


           total memory used          840  kbytes
           total cpu time            0.48 seconds
           total elapsed time        0.57 seconds
           job started at     15:24:00 02/12/2016
           job ended   at     15:24:03 02/12/2016


1****** HSPICE -- B-2008.09-SP1 32-BIT (Nov 24 2008) linux ******               
 ******  
  *on to_in

  ******    alter processing listing tnom=  25.000 temp=  25.000 *****
 vc3 ti_out  gm_in dc = 0
 vc4 to_in gnd dc = 2 ac = 1
 .del lib 'test.l' gm_in
 .lib 'test.l' to_in
 .dc vc4 1 3 0.01
 .ac dec 1000 1 1g
 .probe ac vp(gm_out)
 .endl


 .end
 $ end of alter processing $


 **warning**  the accurate option increases  the cpu time but the results
                are more accurate.
 ***accurate option sets default value of the options: 
 lvltim= 4         dvdt= 3       relvar= 200.00m absvar= 200.00m
     ft= 200.00m relmos=  10.00m
 (used for FFT control ) fft_accurate= 1

 **warning** Source for Pole/Zero analysis  cannot be found, analysis omitted

1****** HSPICE -- B-2008.09-SP1 32-BIT (Nov 24 2008) linux ******               
 ******  
  *on to_in

  ******  circuit name directory
 circuit number to circuit name directory
   number circuitname                     definition         multiplier
        0 main circuit
        1 xtri.                           tr                 1.00 
        2 xgm.                            gm                 1.00 
        3 xtro.                           gm                 1.00 
        4 xgm.x1.                         gmx                1.00 
        5 xgm.x2.                         gmx                1.00 
        6 xtro.x1.                        gmx                1.00 
        7 xtro.x2.                        gmx                1.00 
 
      
  Opening plot unit= 15
 file=new_loopTest.pa5                                                         

 convergence problems in dc sweep curves at   1.9800    
  resimulating with dc convergence controls

 convergence problems in dc sweep curves at   1.9900    
  resimulating with dc convergence controls

1****** HSPICE -- B-2008.09-SP1 32-BIT (Nov 24 2008) linux ******               
 ******  
  *on to_in

  ******  operating point information tnom=  25.000 temp=  25.000 *****
 ***** operating point status is all       simulation time is     0.     
    node    =voltage      node    =voltage      node    =voltage

 +0:c0      = 1.225e+00 0:cn      = 4.499e-01 0:cp      = 2.700e+00
 +0:cz      = 2.394e+00 0:gm_in   = 1.947e+00 0:gm_out  = 1.951e+00
 +0:in      =   0.      0:nwd     = 1.068e+00 0:opb     = 2.000e+00
 +0:out     = 2.000e+00 0:ti_in   = 2.000e+00 0:ti_out  = 1.947e+00
 +0:to_in   = 2.000e+00 0:to_out  = 1.980e+00 0:vdd     = 3.300e+00
 +0:vdt     = 1.200e+00 0:vgn     = 1.800e+00 0:vgt     = 6.000e-01
 +0:vnw     = 4.805e-01 0:vsn     = 1.192e-01 0:vss     =   0.     
 +0:vst     = 3.098e-02 1:1       = 5.967e-01 1:2       = 5.994e-01
 +1:b       = 2.833e+00 2:bd      = 2.708e+00 2:ggn     = 6.681e-01
 +2:ggp     = 6.679e-01 2:idn     = 6.681e-01 2:idp     = 6.679e-01
 +2:io1     = 1.980e+00 2:sdn     = 1.682e+00 2:sdp     = 1.682e+00
 +3:bd      = 2.716e+00 3:ggn     = 6.679e-01 3:ggp     = 6.679e-01
 +3:idn     = 6.679e-01 3:idp     = 6.679e-01 3:io1     = 1.980e+00
 +3:sdn     = 1.690e+00 3:sdp     = 1.690e+00


 maximum nodal capacitance=   1.003E-11         on node     0:gm_out          

    nodal  capacitance table 

    node    =    cap      node    =    cap      node    =    cap

 +0:c0      = 1.793e-14 0:cn      = 7.945e-14 0:cp      = 8.232e-14
 +0:cz      = 2.026e-13 0:gm_in   = 1.363e-14 0:gm_out  = 1.003e-11
 +0:in      =   0.      0:nwd     = 1.923e-14 0:opb     = 9.868e-14
 +0:out     = 1.090e-14 0:ti_in   = 8.525e-14 0:ti_out  = 1.056e-12
 +0:to_in   = 1.342e-14 0:to_out  = 1.235e-14 0:vdd     = 1.128e-12
 +0:vdt     = 7.229e-15 0:vgn     = 7.001e-15 0:vgt     = 4.853e-15
 +0:vnw     = 5.033e-15 0:vsn     = 1.656e-14 0:vss     = 1.345e-12
 +0:vst     = 2.470e-14 1:1       = 9.656e-14 1:2       = 1.092e-12
 +1:b       = 2.955e-13 2:bd      = 6.567e-14 2:ggn     = 1.012e-13
 +2:ggp     = 1.012e-13 2:idn     = 3.066e-14 2:idp     = 3.066e-14
 +2:io1     = 1.717e-13 2:sdn     = 4.270e-14 2:sdp     = 4.268e-14
 +3:bd      = 6.569e-14 3:ggn     = 1.012e-13 3:ggp     = 1.012e-13
 +3:idn     = 3.061e-14 3:idp     = 3.061e-14 3:io1     = 1.717e-13
 +3:sdn     = 4.255e-14 3:sdp     = 4.255e-14

 

 ****  voltage sources

 subckt                                                                    
 element  0:vng      0:vc2      0:vc3      0:vc4      0:vfc      0:vopbias 
  volts    1.800e+00    0.         0.       2.000e+00  1.500e+00  2.000e+00
  current    0.       2.614e-06  2.078e-12 -1.643e-12  5.551e-17 -1.643e-12
  power      0.         0.         0.       3.285e-12 -8.327e-17  3.285e-12

 subckt                                               xgm        xgm       
 element  0:vd       0:vs       0:vtg      0:vtd      2:v0       2:v1      
  volts    3.300e+00    0.       6.000e-01  1.200e+00    0.         0.     
  current -6.714e-05  7.064e-05    0.      -3.500e-06 -2.776e-17 -2.776e-17
  power    2.215e-04    0.         0.       4.200e-06    0.         0.     

 subckt   xtro       xtro      
 element  3:v0       3:v1      
  volts      0.         0.     
  current  1.388e-17  1.388e-17
  power      0.         0.     

     total voltage source power dissipation=  2.257e-04       watts



 ***** current sources

 subckt                                   
 element  0:ic       0:ip       0:it      
  volts    2.700e+00  1.300e+00  3.098e-02
  current  5.000e-07  3.500e-06  3.500e-06
  power   -1.350e-06 -4.550e-06 -1.084e-07


     total current source power dissipation=-6.009e-06       watts

 **** resistors

 subckt   xtri      
 element  1:rl      
  r value  2.000e+04
  v drop  -5.229e-02
  current -2.614e-06
  power    1.367e-07



 **** mosfets


 subckt                                                                    
 element  0:mc0      0:mc1      0:mc2      0:mc3      0:mcx      0:mcz     
 model    0:pch.3    0:pch.3    0:pch.6    0:nch.3    0:pch.5    0:nch.2   
 region       Cutoff     Cutoff   Saturati     Cutoff   Saturati     Cutoff
  id      -5.000e-07 -3.747e-07 -3.747e-07  3.747e-07 -6.069e-07  6.063e-07
  ibs      1.004e-19  7.527e-20  8.207e-20 -5.981e-19  1.329e-19 -9.126e-19
  ibd      3.331e-15  2.494e-12  1.159e-16 -2.153e-14  1.160e-16 -5.585e-10
  vgs     -5.993e-01 -5.993e-01 -7.753e-01  4.499e-01 -9.058e-01  4.499e-01
  vds     -5.993e-01 -2.074e+00 -7.753e-01  4.499e-01 -9.058e-01  2.394e+00
  vbs        0.         0.         0.         0.         0.         0.     
  vth     -7.198e-01 -6.799e-01 -7.454e-01  5.699e-01 -7.778e-01  5.635e-01
  vdsat   -4.893e-02 -5.365e-02 -1.021e-01  4.412e-02 -1.747e-01  4.465e-02
  vod      1.205e-01  8.054e-02 -2.990e-02 -1.199e-01 -1.280e-01 -1.136e-01
  beta     4.335e-03  1.252e-03  1.063e-04  8.618e-03  4.825e-05  6.708e-03
  gam eff  4.553e-01  4.553e-01  4.082e-01  5.577e-01  3.889e-01  4.720e-01
  gm       1.151e-05  8.252e-06  5.574e-06  9.828e-06  6.523e-06  1.525e-05
  gds      3.541e-07  2.330e-07  1.632e-07  1.620e-07  6.154e-08  8.384e-08
  gmb      2.576e-06  1.809e-06  1.177e-06  2.825e-06  1.414e-06  4.592e-06
  cdtot    5.072e-14  1.084e-14  1.895e-15  2.054e-14  1.835e-15  3.189e-14
  cgtot    2.458e-14  7.023e-15  9.699e-16  1.269e-14  3.685e-15  4.335e-14
  cstot    6.271e-14  1.792e-14  2.700e-15  2.275e-14  5.690e-15  4.284e-14
  cbtot    1.121e-13  2.838e-14  4.394e-15  4.318e-14  5.204e-15  9.314e-14
  cgs      6.469e-15  1.848e-15  3.889e-16  3.200e-15  2.762e-15  6.232e-15
  cgd      6.469e-15  1.848e-15  1.922e-16  3.200e-15  1.922e-16  6.232e-15



 subckt                                    xtri       xtri       xtri      
 element  0:mc       0:mnw      0:mt       1:mb       1:m1       1:m2      
 model    0:nch.3    0:nch.3    0:nch.3    0:pch.1    0:pch.1    0:pch.1   
 region       Cutoff     Cutoff   Saturati   Saturati   Saturati   Saturati
  id       8.856e-07  8.856e-07  3.500e-06 -1.001e-06 -5.003e-07 -5.003e-07
  ibs     -1.308e-14  8.478e-13 -5.488e-18  2.009e-19  1.021e-19  1.022e-19
  ibd     -1.345e-14 -1.812e-14 -2.146e-13  4.759e-16  3.289e-13  3.249e-13
  vgs      7.318e-01  4.805e-01  5.690e-01 -9.058e-01 -8.330e-01 -8.330e-01
  vds      9.318e-01  1.068e+00  1.169e+00 -4.670e-01 -2.236e+00 -2.233e+00
  vbs     -1.068e+00  1.192e-01    0.         0.         0.         0.     
  vth      8.050e-01  5.346e-01  5.649e-01 -7.520e-01 -7.564e-01 -7.565e-01
  vdsat    4.944e-02  4.893e-02  6.341e-02 -1.923e-01 -1.333e-01 -1.334e-01
  vod     -7.322e-02 -5.414e-02  4.080e-03 -1.538e-01 -7.656e-02 -7.656e-02
  beta     5.630e-03  3.417e-03  3.403e-03  6.424e-05  7.579e-05  7.579e-05
  gam eff  5.738e-01  5.588e-01  5.599e-01  4.097e-01  4.002e-01  4.002e-01
  gm       2.356e-05  2.128e-05  7.677e-05  9.660e-06  6.328e-06  6.328e-06
  gds      4.413e-07  3.082e-07  1.096e-06  4.191e-08  1.407e-08  1.408e-08
  gmb      4.347e-06  5.133e-06  2.092e-05  2.268e-06  1.501e-06  1.501e-06
  cdtot    1.090e-14  7.407e-15  7.229e-15  7.534e-15  6.749e-15  6.751e-15
  cgtot    7.001e-15  5.033e-15  4.853e-15  8.017e-14  8.525e-14  8.526e-14
  cstot    1.183e-14  9.127e-15  8.812e-15  9.611e-14  9.564e-14  9.564e-14
  cbtot    2.142e-14  1.656e-14  1.588e-14  4.098e-14  4.836e-14  4.836e-14
  cgs      2.077e-15  1.252e-15  1.252e-15  6.913e-14  6.716e-14  6.717e-14
  cgd      2.077e-15  1.252e-15  1.252e-15  9.242e-16  1.116e-15  1.116e-15



 subckt   xtri       xtri       xtri       xtri       xgm        xgm       
 element  1:m3       1:m4       1:ma1      1:ma2      2:mo3a     2:mo4a    
 model    0:nch.1    0:nch.1    0:pch.2    0:nch.2    0:pch.1    0:pch.1   
 region     Saturati   Saturati   Saturati   Saturati   Saturati   Saturati
  id       5.003e-07  5.003e-07 -1.549e-05  1.810e-05 -9.277e-06 -9.281e-06
  ibs     -8.612e-19 -8.613e-19  3.077e-18 -2.650e-17  1.862e-18  1.862e-18
  ibd     -4.644e-15 -4.644e-15  2.775e-14 -1.350e-09  4.587e-16  4.598e-16
  vgs      5.967e-01  5.967e-01 -9.058e-01  5.994e-01 -1.319e+00 -1.319e+00
  vds      5.967e-01  5.994e-01 -1.352e+00  1.947e+00 -1.319e+00 -1.348e+00
  vbs        0.         0.         0.         0.         0.         0.     
  vth      5.345e-01  5.345e-01 -7.511e-01  5.662e-01 -7.510e-01 -7.510e-01
  vdsat    1.076e-01  1.076e-01 -1.988e-01  8.238e-02 -5.585e-01 -5.585e-01
  vod      6.217e-02  6.217e-02 -1.547e-01  3.314e-02 -5.685e-01 -5.686e-01
  beta     1.171e-04  1.171e-04  9.121e-04  7.790e-03  5.773e-05  5.773e-05
  gam eff  4.547e-01  4.547e-01  3.952e-01  4.732e-01  4.091e-01  4.091e-01
  gm       7.528e-06  7.528e-06  1.526e-04  3.348e-04  2.963e-05  2.964e-05
  gds      1.046e-08  1.045e-08  1.409e-06  1.662e-06  1.386e-07  1.357e-07
  gmb      2.238e-06  2.238e-06  3.325e-05  9.747e-05  6.920e-06  6.923e-06
  cdtot    4.161e-15  4.159e-15  1.883e-14  3.714e-14  5.912e-15  5.879e-15
  cgtot    4.282e-14  4.282e-14  5.210e-14  8.095e-14  7.969e-14  7.969e-14
  cstot    4.679e-14  4.679e-14  7.919e-14  1.050e-13  9.644e-14  9.644e-14
  cbtot    2.665e-14  2.665e-14  5.524e-14  1.079e-13  3.770e-14  3.767e-14
  cgs      3.216e-14  3.216e-14  4.371e-14  4.937e-14  7.019e-14  7.019e-14
  cgd      6.333e-16  6.333e-16  2.946e-15  7.167e-15  8.876e-16  8.876e-16



 subckt   xgm        xgm        xgm        xtro       xtro       xtro      
 element  2:mo1      2:mo2      2:mb       3:mo3a     3:mo4a     3:mo1     
 model    0:nch.2    0:nch.2    0:pch.2    0:pch.1    0:pch.1    0:nch.2   
 region     Saturati   Saturati   Saturati   Saturati   Saturati   Saturati
  id       9.277e-06  9.281e-06 -4.280e-06 -9.277e-06 -9.277e-06  9.276e-06
  ibs     -1.461e-17 -1.462e-17  8.589e-19  1.862e-18  1.862e-18 -1.461e-17
  ibd     -6.377e-10 -5.261e-10  4.759e-16  4.587e-16  4.587e-16 -6.377e-10
  vgs      6.679e-01  6.681e-01 -9.058e-01 -1.319e+00 -1.319e+00  6.679e-01
  vds      1.980e+00  1.951e+00 -5.917e-01 -1.319e+00 -1.319e+00  1.980e+00
  vbs        0.         0.         0.         0.         0.         0.     
  vth      5.615e-01  5.616e-01 -7.586e-01 -7.510e-01 -7.510e-01  5.615e-01
  vdsat    1.278e-01  1.279e-01 -1.922e-01 -5.584e-01 -5.584e-01  1.278e-01
  vod      1.064e-01  1.065e-01 -1.472e-01 -5.685e-01 -5.685e-01  1.064e-01
  beta     1.237e-03  1.237e-03  2.799e-04  5.773e-05  5.773e-05  1.237e-03
  gam eff  4.699e-01  4.699e-01  3.951e-01  4.091e-01  4.091e-01  4.699e-01
  gm       1.235e-04  1.236e-04  4.323e-05  2.963e-05  2.963e-05  1.235e-04
  gds      5.974e-07  5.962e-07  5.558e-07  1.386e-07  1.386e-07  5.974e-07
  gmb      3.574e-05  3.574e-05  9.414e-06  6.920e-06  6.920e-06  3.573e-05
  cdtot    6.436e-15  6.449e-15  7.262e-15  5.912e-15  5.912e-15  6.436e-15
  cgtot    1.910e-14  1.911e-14  1.647e-14  7.969e-14  7.969e-14  1.910e-14
  cstot    2.707e-14  2.708e-14  2.507e-14  9.644e-14  9.644e-14  2.707e-14
  cbtot    1.924e-14  1.925e-14  1.911e-14  3.770e-14  3.770e-14  1.924e-14
  cgs      1.516e-14  1.517e-14  1.367e-14  7.019e-14  7.019e-14  1.516e-14
  cgd      1.190e-15  1.190e-15  9.242e-16  8.876e-16  8.876e-16  1.190e-15



 subckt   xtro       xtro       xgm.x1     xgm.x1     xgm.x1     xgm.x2    
 element  3:mo2      3:mb       4:ms       4:min      4:mn       5:ms      
 model    0:nch.2    0:pch.2    0:pch.1    0:pch.1    0:nch.1    0:pch.1   
 region     Saturati   Saturati   Saturati   Saturati   Saturati   Saturati
  id       9.276e-06 -4.275e-06 -2.138e-06 -2.138e-06  2.138e-06 -2.142e-06
  ibs     -1.461e-17  8.580e-19  4.445e-19  2.959e-16 -3.419e-18  4.454e-19
  ibd     -6.377e-10  4.759e-16  2.061e-16  2.966e-16 -7.055e-15  2.061e-16
  vgs      6.679e-01 -9.058e-01 -1.025e+00 -1.014e+00  6.679e-01 -1.026e+00
  vds      1.980e+00 -5.840e-01 -1.025e+00 -1.014e+00  6.679e-01 -1.026e+00
  vbs        0.         0.         0.       2.693e-01    0.         0.     
  vth      5.615e-01 -7.586e-01 -7.668e-01 -8.150e-01  5.378e-01 -7.668e-01
  vdsat    1.278e-01 -1.922e-01 -2.829e-01 -2.355e-01  1.565e-01 -2.831e-01
  vod      1.064e-01 -1.471e-01 -2.591e-01 -1.994e-01  1.301e-01 -2.594e-01
  beta     1.237e-03  2.799e-04  5.640e-05  8.712e-05  2.004e-04  5.640e-05
  gam eff  4.699e-01  3.951e-01  3.892e-01  3.974e-01  4.621e-01  3.892e-01
  gm       1.235e-04  4.319e-05  1.432e-05  1.770e-05  2.415e-05  1.433e-05
  gds      5.974e-07  5.590e-07  1.165e-07  1.215e-07  3.586e-08  1.167e-07
  gmb      3.573e-05  9.405e-06  3.169e-06  3.450e-06  7.209e-06  3.172e-06
  cdtot    6.436e-15  7.278e-15  2.968e-15  3.935e-15  6.496e-15  2.968e-15
  cgtot    1.910e-14  1.647e-14  1.406e-14  2.023e-14  8.207e-14  1.406e-14
  cstot    2.707e-14  2.507e-14  1.839e-14  2.566e-14  9.837e-14  1.839e-14
  cbtot    1.924e-14  1.913e-14  1.082e-14  1.362e-14  4.346e-14  1.082e-14
  cgs      1.516e-14  1.367e-14  1.172e-14  1.729e-14  6.907e-14  1.172e-14
  cgd      1.190e-15  9.242e-16  3.751e-16  5.582e-16  1.046e-15  3.751e-16



 subckt   xgm.x2     xgm.x2     xtro.x1    xtro.x1    xtro.x1    xtro.x2   
 element  5:min      5:mn       6:ms       6:min      6:mn       7:ms      
 model    0:pch.1    0:nch.1    0:pch.1    0:pch.1    0:nch.1    0:pch.1   
 region     Saturati   Saturati   Saturati   Saturati   Saturati   Saturati
  id      -2.142e-06  2.142e-06 -2.138e-06 -2.138e-06  2.138e-06 -2.138e-06
  ibs      2.959e-16 -3.426e-18  4.445e-19  2.959e-16 -3.419e-18  4.445e-19
  ibd      2.966e-16 -7.055e-15  2.061e-16  2.968e-16 -7.055e-15  2.061e-16
  vgs     -1.013e+00  6.681e-01 -1.025e+00 -1.022e+00  6.679e-01 -1.025e+00
  vds     -1.013e+00  6.681e-01 -1.025e+00 -1.022e+00  6.679e-01 -1.025e+00
  vbs      2.657e-01    0.         0.       3.099e-01    0.         0.     
  vth     -8.143e-01  5.378e-01 -7.668e-01 -8.226e-01  5.378e-01 -7.668e-01
  vdsat   -2.357e-01  1.566e-01 -2.829e-01 -2.360e-01  1.565e-01 -2.829e-01
  vod     -1.996e-01  1.303e-01 -2.591e-01 -1.995e-01  1.301e-01 -2.591e-01
  beta     8.713e-05  2.004e-04  5.640e-05  8.690e-05  2.004e-04  5.640e-05
  gam eff  3.974e-01  4.621e-01  3.892e-01  3.974e-01  4.621e-01  3.892e-01
  gm       1.772e-05  2.418e-05  1.432e-05  1.771e-05  2.415e-05  1.432e-05
  gds      1.217e-07  3.590e-08  1.165e-07  1.211e-07  3.585e-08  1.165e-07
  gmb      3.459e-06  7.218e-06  3.169e-06  3.390e-06  7.209e-06  3.169e-06
  cdtot    3.938e-15  6.495e-15  2.968e-15  3.898e-15  6.496e-15  2.968e-15
  cgtot    2.023e-14  8.208e-14  1.406e-14  2.022e-14  8.207e-14  1.406e-14
  cstot    2.567e-14  9.839e-14  1.839e-14  2.553e-14  9.837e-14  1.839e-14
  cbtot    1.363e-14  4.346e-14  1.082e-14  1.342e-14  4.346e-14  1.082e-14
  cgs      1.729e-14  6.909e-14  1.172e-14  1.730e-14  6.907e-14  1.172e-14
  cgd      5.582e-16  1.046e-15  3.751e-16  5.582e-16  1.046e-15  3.751e-16



 subckt   xtro.x2    xtro.x2   
 element  7:min      7:mn      
 model    0:pch.1    0:nch.1   
 region     Saturati   Saturati
  id      -2.138e-06  2.138e-06
  ibs      2.959e-16 -3.419e-18
  ibd      2.968e-16 -7.055e-15
  vgs     -1.022e+00  6.679e-01
  vds     -1.022e+00  6.679e-01
  vbs      3.099e-01    0.     
  vth     -8.226e-01  5.378e-01
  vdsat   -2.360e-01  1.565e-01
  vod     -1.995e-01  1.301e-01
  beta     8.690e-05  2.004e-04
  gam eff  3.974e-01  4.621e-01
  gm       1.771e-05  2.415e-05
  gds      1.211e-07  3.585e-08
  gmb      3.390e-06  7.209e-06
  cdtot    3.898e-15  6.496e-15
  cgtot    2.022e-14  8.207e-14
  cstot    2.553e-14  9.837e-14
  cbtot    1.342e-14  4.346e-14
  cgs      1.730e-14  6.907e-14
  cgd      5.582e-16  1.046e-15




          ***** job concluded
1****** HSPICE -- B-2008.09-SP1 32-BIT (Nov 24 2008) linux ******               
 ******  
  *on to_in

  ******  job statistics summary tnom=  25.000 temp=  25.000 *****

  ******  HSPICE Threads Information  ******
  Command Line Threads Count:                      0
  Available CPU Count:                             8
  Actual Model Evaluation(Load) Threads Count:     1
  Actual Solver Threads Count:                     1


  ******  Circuit Statistics  ******
  # nodes       =     120  # elements   =      61
  # resistors   =       2  # capacitors =       2  # inductors   =       0
  # mutual_inds =       0  # vccs       =       0  # vcvs        =       0
  # cccs        =       0  # ccvs       =       0  # volt_srcs   =      16
  # curr_srcs   =       3  # diodes     =       0  # bjts        =       0
  # jfets       =       0  # mosfets    =      38  # U elements  =       0
  # T elements  =       0  # W elements =       0  # B elements  =       0
  # S elements  =       0  # P elements =       0  # va device   =       0


  ******  Runtime Statistics (seconds)  ******

  analysis           time    # points   tot. iter  conv.iter
  op point           0.01           1          56
  dc sweep           0.10         201         895
  ac analysis        0.33        9001        9001
  readin             0.02
  errchk             0.01
  setup              0.00
  output             0.00


           total memory used          841  kbytes
           total cpu time            0.47 seconds
           total elapsed time        0.56 seconds
           job started at     15:24:00 02/12/2016
           job ended   at     15:24:04 02/12/2016


 Init: hspice initialization file: /usr/cad/synopsys/hspice/cur/hspice/hspice.ini
 lic: Release hspice token(s) 
