Using: /usr/bin/time -p /usr/cad/synopsys/hspice/cur/hspice/linux/hspice new_loopTest.sp
 ****** HSPICE -- B-2008.09-SP1 32-BIT (Nov 24 2008) linux ******               
  Copyright (C) 2008 Synopsys, Inc. All Rights Reserved.                        
  Unpublished-rights reserved under US copyright laws.
  This program is protected by law and is subject to the 
  terms and conditions of the license agreement from Synopsys.
  Use of this program is your acceptance to be bound by the 
  license agreement. HSPICE is the trademark of Synopsys, Inc.
  Input File: new_loopTest.sp                                                   
 lic:  
 lic: FLEXlm: v8.5b 
 lic: USER:   m103061608           HOSTNAME: ws42 
 lic: HOSTID: e41f13bfda98         PID:      11555 
 lic: Using FLEXlm license file: 
 lic: 26585@lsnctu 
 lic: Checkout 1 hspice 
 lic: License/Maintenance for hspice will expire on 14-may-2016/2015.06 
 lic: FLOATING license(s) on SERVER lsnctu 
 lic:   
 Init: read install configuration file: /usr/cad/synopsys/hspice/cur/hspice/meta.cfg
 Init: hspice initialization file: /usr/cad/synopsys/hspice/cur/hspice/hspice.ini
 .option runlvl
 .options abstol=1e-7 reltol=1e-7
 + post=1 captab=1 accurate=1 ingold=2 converge=5 dcon=2 unwrap=1

 ***subckt***
 ******ienlarge******
 .subckt ien vdd vss vinn vinp vout cz eb
 mb	b	cz	 vdd vdd pch w = 12u  l = 5u  m = 1
 m1	von	vinp b	 b	 pch w = 6u   l = 5u  m = 1
 m2	vop	vinn b	 b	 pch w = 6u   l = 5u  m = 1
 m3	von	von	 vss vss nch w = 3u   l = 5u  m = 1
 m4	vop	von	 vss vss nch w = 3u   l = 5u    m = 1

 me1p vinp eb vdd vdd pch w = 10u l = 0.4u
 me2p vout eb vdd vdd pch w = 10u l = 0.4u m = 10
 me1n vinp vop vss vss nch  w = 2u l = 0.4u
 me2n vout vop vss vss nch  w = 2u l = 0.4u m = 10
 *rc  xx   vop 100k
 cc  vinp vop  1p
 *ct  vout gnd 300f
 .ends
 ******tr******
 .subckt tr vdd vss vinp vinn vop cz rld=20k
 mb	b	cz	 vdd vdd pch w = 5u  l = 5u  m = 1
 m1	1	vinn b	 b	 pch w = 3u   l = 5u  m = 2
 m2	2	vinp b	 b	 pch w = 3u   l = 5u  m = 2
 m3	1	1	 vss vss nch w = 3u   l = 5u  m = 1
 m4	2	1	 vss vss nch w = 3u l = 5u    m = 1
 ma1 vop cz vdd vdd pch w = 8u l = 1u m = 2
 ma2 vop 2  vss vss nch w = 17.3u l = 1u m = 2
 c1  2  vop 1p
 rl   vop    vinn rld
 .ends
 .subckt trx vdd vss vinp vinn vop cz
 mb	b	cz	 vdd vdd pch w = 5u  l = 5u  m = 1
 m1	1	vinn b	 b	 pch w = 3u   l = 5u  m = 2
 m2	2	vinp b	 b	 pch w = 3u   l = 5u  m = 2
 m3	1	1	 vss vss nch w = 3u   l = 5u  m = 1
 m4	2	1	 vss vss nch w = 3u l = 5u    m = 1
 ma1 vop cz vdd vdd pch w = 8u l = 1u m = 2
 ma2 vop 2  vss vss nch w = 17.3u l = 1u m = 2
 c1  2  vop 1p
 .ends
 ******gm******
 .subckt gm vdd vss inp inn io2  vb
 .subckt gmx vdd vss in bd gg id sd
 ms  sd  sd bd  bd  pch  w = 2u    l = 2u m = 1
 min id  id  sd  in  pch w = 3u    l = 2u m = 1
 mn  id  gg  vss vss nch w = 5u    l = 5u m = 1
 .ends
 mo3a io1 io1 vdd vdd pch w = 4.8u l = 5u m = 1
 mo4a io2 io1 vdd vdd pch w = 4.8u l = 5u m = 1
 mo1  io1 ggp vss vss nch w = 5.7u l = 1u m = 1
 mo2  io2 ggn vss vss nch w = 5.7u l = 1u m = 1
 mb  bd  vb  vdd vdd pch w = 5u l = 1u   m = 1
 x1  vdd vss inn bd ggp idp sdp gmx
 x2  vdd vss inp bd ggn idn sdn gmx
 v0  idp ggp dc = 0
 v1  idn ggn dc = 0
 .ends
 ******current mirror******
 ic  cp vss dc = 500n
 mc0 cp cp vdd vdd pch w = 5u l = 0.4u m = 7
 mc1 c0 cp vdd vdd pch w = 5u l = 0.4u m = 2
 mc2 cn cn c0  c0  pch w = 1u l = 0.4u m = 1
 mc3 cn cn vss vss nch w = 5.1u l = 0.4u m = 3
 mcx  cz cz vdd vdd pch w = 1u l = 1u m = 1
 mcz  cz cn vss vss nch w = 10u l = 1u m = 3



 ***netlist***
 xtri vdd vss opb ti_in ti_out  cz  tr rld=20k
 xgm  vdd vss gm_in gm_out gm_out  cz  gm
 *xtro vdd vss opb to_in to_out  cz  trx
 xtro vdd vss to_in opb to_out  cz  gm       *use gm as op
 cg  gm_out gnd 10p
 xien vdd vss opb ien_in ien_out cz  eb ien
 veb eb gnd dc = 2.5

 ***nw input stage***
 .param pbi = 1u
 ip vdd out dc = pbi
 mc  out vgn nwd vss nch w = 10u  l = 0.4u m = 1
 vng vgn gnd dc = 1.8
 .param wx = 6u
 mnw nwd vnw vss vss nch w = wx l = 0.4u m = 1
 .param ins = 0



 ***connection***
 vc1 out     ien_in dc = 0
 vc2 ien_out ti_in  dc = 0
 vc3 ti_out  gm_in  dc = 0
 vc4 gm_out  to_in  dc = 0
 vfc to_out  vnw    dc = 1.5


 vopbias opb gnd dc = 2 *ac = 1 *180
 .param
 +comon		= 2
 +diff		= 0
 vd vdd gnd dc = 3.3
 vs vss gnd dc = 0




 .probe dc  i(mnw) i(ip) i(mc) i(xtri.rl) lx3(mc) lv9(mc) lv9(mnw)
 + par'lx7(mc)/lx8(mc)/lx8(mnw)'
 .probe ac vp(to_out)

 .op




 .alter *all


 **warning**  the accurate option increases  the cpu time but the results
                are more accurate.
 ***accurate option sets default value of the options: 
 lvltim= 4         dvdt= 3       relvar= 200.00m absvar= 200.00m
     ft= 200.00m relmos=  10.00m
 (used for FFT control ) fft_accurate= 1
1****** HSPICE -- B-2008.09-SP1 32-BIT (Nov 24 2008) linux ******               
 ******  
 *new_looptest

  ******  circuit name directory
 circuit number to circuit name directory
   number circuitname                     definition         multiplier
        0 main circuit
        1 xtri.                           tr                 1.00 
        2 xgm.                            gm                 1.00 
        3 xtro.                           gm                 1.00 
        4 xien.                           ien                1.00 
        5 xgm.x1.                         gmx                1.00 
        6 xgm.x2.                         gmx                1.00 
        7 xtro.x1.                        gmx                1.00 
        8 xtro.x2.                        gmx                1.00 
 

 
      
  Opening plot unit= 15
 file=new_loopTest.pa0                                                         

  *** gshunt ramping started *** 
  *** gshunt ramping succeeded *** 
1****** HSPICE -- B-2008.09-SP1 32-BIT (Nov 24 2008) linux ******               
 ******  
 *new_looptest

  ******  operating point information tnom=  25.000 temp=  25.000 *****
 ***** operating point status is all       simulation time is     0.     
    node    =voltage      node    =voltage      node    =voltage

 +0:c0      = 1.225e+00 0:cn      = 4.499e-01 0:cp      = 2.700e+00
 +0:cz      = 2.394e+00 0:eb      = 2.500e+00 0:gm_in   = 2.008e+00
 +0:gm_out  = 2.004e+00 0:ien_in  = 2.000e+00 0:ien_out = 2.000e+00
 +0:nwd     = 1.065e+00 0:opb     = 2.000e+00 0:out     = 2.000e+00
 +0:ti_in   = 2.000e+00 0:ti_out  = 2.008e+00 0:to_in   = 2.004e+00
 +0:to_out  = 2.014e+00 0:vdd     = 3.300e+00 0:vgn     = 1.800e+00
 +0:vnw     = 5.147e-01 0:vss     =   0.      1:1       = 5.967e-01
 +1:2       = 5.890e-01 1:b       = 2.833e+00 2:bd      = 2.717e+00
 +2:ggn     = 6.678e-01 2:ggp     = 6.680e-01 2:idn     = 6.678e-01
 +2:idp     = 6.680e-01 2:io1     = 1.980e+00 2:sdn     = 1.691e+00
 +2:sdp     = 1.691e+00 3:bd      = 2.716e+00 3:ggn     = 6.678e-01
 +3:ggp     = 6.680e-01 3:idn     = 6.678e-01 3:idp     = 6.680e-01
 +3:io1     = 1.980e+00 3:sdn     = 1.690e+00 3:sdp     = 1.690e+00
 +4:b       = 2.908e+00 4:von     = 6.710e-01 4:vop     = 6.829e-01


 maximum nodal capacitance=   1.003E-11         on node     0:gm_out          

    nodal  capacitance table 

    node    =    cap      node    =    cap      node    =    cap

 +0:c0      = 1.793e-14 0:cn      = 7.945e-14 0:cp      = 8.232e-14
 +0:cz      = 3.918e-13 0:eb      = 1.367e-13 0:gm_in   = 1.339e-14
 +0:gm_out  = 1.003e-11 0:ien_in  = 1.110e-12 0:ien_out = 1.432e-13
 +0:nwd     = 1.914e-14 0:opb     = 1.946e-13 0:out     = 1.090e-14
 +0:ti_in   = 8.526e-14 0:ti_out  = 1.056e-12 0:to_in   = 1.340e-14
 +0:to_out  = 1.237e-14 0:vdd     = 2.057e-12 0:vgn     = 7.001e-15
 +0:vnw     = 4.896e-15 0:vss     = 1.649e-12 1:1       = 9.656e-14
 +1:2       = 1.082e-12 1:b       = 2.955e-13 2:bd      = 6.569e-14
 +2:ggn     = 1.012e-13 2:ggp     = 1.012e-13 2:idn     = 3.060e-14
 +2:idp     = 3.061e-14 2:io1     = 1.717e-13 2:sdn     = 4.253e-14
 +2:sdp     = 4.254e-14 3:bd      = 6.569e-14 3:ggn     = 1.012e-13
 +3:ggp     = 1.012e-13 3:idn     = 3.060e-14 3:idp     = 3.061e-14
 +3:io1     = 1.717e-13 3:sdn     = 4.254e-14 3:sdp     = 4.255e-14
 +4:b       = 3.402e-13 4:von     = 1.118e-13 4:vop     = 1.046e-12

 

 ****  voltage sources

 subckt                                                                    
 element  0:veb      0:vng      0:vc1      0:vc2      0:vc3      0:vc4     
  volts    2.500e+00  1.800e+00    0.         0.         0.         0.     
  current    0.         0.       4.136e-08 -4.092e-07  1.657e-12  1.652e-12
  power      0.         0.         0.         0.         0.         0.     

 subckt                                               xgm        xgm       
 element  0:vfc      0:vopbias  0:vd       0:vs       2:v0       2:v1      
  volts    1.500e+00  2.000e+00  3.300e+00    0.         0.         0.     
  current -5.551e-17 -1.642e-12 -1.796e-04  1.796e-04    0.      -2.776e-17
  power    8.327e-17  3.285e-12  5.927e-04    0.         0.         0.     

 subckt   xtro       xtro      
 element  3:v0       3:v1      
  volts      0.         0.     
  current  1.388e-17  2.776e-17
  power      0.         0.     

     total voltage source power dissipation=  5.927e-04       watts



 ***** current sources

 subckt                        
 element  0:ic       0:ip      
  volts    2.700e+00  1.300e+00
  current  5.000e-07  1.000e-06
  power   -1.350e-06 -1.300e-06


     total current source power dissipation=-2.650e-06       watts

 **** resistors

 subckt   xtri      
 element  1:rl      
  r value  2.000e+04
  v drop   8.184e-03
  current  4.092e-07
  power    3.349e-09



 **** mosfets


 subckt                                                                    
 element  0:mc0      0:mc1      0:mc2      0:mc3      0:mcx      0:mcz     
 model    0:pch.3    0:pch.3    0:pch.6    0:nch.3    0:pch.5    0:nch.2   
 region       Cutoff     Cutoff   Saturati     Cutoff   Saturati     Cutoff
  id      -5.000e-07 -3.747e-07 -3.747e-07  3.747e-07 -6.069e-07  6.063e-07
  ibs      1.004e-19  7.527e-20  8.207e-20 -5.981e-19  1.329e-19 -9.126e-19
  ibd      3.331e-15  2.494e-12  1.159e-16 -2.153e-14  1.160e-16 -5.585e-10
  vgs     -5.993e-01 -5.993e-01 -7.753e-01  4.499e-01 -9.058e-01  4.499e-01
  vds     -5.993e-01 -2.074e+00 -7.753e-01  4.499e-01 -9.058e-01  2.394e+00
  vbs        0.         0.         0.         0.         0.         0.     
  vth     -7.198e-01 -6.799e-01 -7.454e-01  5.699e-01 -7.778e-01  5.635e-01
  vdsat   -4.893e-02 -5.365e-02 -1.021e-01  4.412e-02 -1.747e-01  4.465e-02
  vod      1.205e-01  8.054e-02 -2.990e-02 -1.199e-01 -1.280e-01 -1.136e-01
  beta     4.335e-03  1.252e-03  1.063e-04  8.618e-03  4.825e-05  6.708e-03
  gam eff  4.553e-01  4.553e-01  4.082e-01  5.577e-01  3.889e-01  4.720e-01
  gm       1.151e-05  8.252e-06  5.574e-06  9.828e-06  6.523e-06  1.525e-05
  gds      3.541e-07  2.330e-07  1.632e-07  1.620e-07  6.154e-08  8.384e-08
  gmb      2.576e-06  1.809e-06  1.177e-06  2.825e-06  1.414e-06  4.592e-06
  cdtot    5.072e-14  1.084e-14  1.895e-15  2.054e-14  1.835e-15  3.189e-14
  cgtot    2.458e-14  7.023e-15  9.699e-16  1.269e-14  3.685e-15  4.335e-14
  cstot    6.271e-14  1.792e-14  2.700e-15  2.275e-14  5.690e-15  4.284e-14
  cbtot    1.121e-13  2.838e-14  4.394e-15  4.318e-14  5.204e-15  9.314e-14
  cgs      6.469e-15  1.848e-15  3.889e-16  3.200e-15  2.762e-15  6.232e-15
  cgd      6.469e-15  1.848e-15  1.922e-16  3.200e-15  1.922e-16  6.232e-15



 subckt                         xtri       xtri       xtri       xtri      
 element  0:mc       0:mnw      1:mb       1:m1       1:m2       1:m3      
 model    0:nch.3    0:nch.3    0:pch.1    0:pch.1    0:pch.1    0:nch.1   
 region       Cutoff     Cutoff   Saturati   Saturati   Saturati   Saturati
  id       9.586e-07  9.586e-07 -1.001e-06 -5.003e-07 -5.003e-07  5.003e-07
  ibs     -1.308e-14 -1.504e-18  2.009e-19  1.022e-19  1.021e-19 -8.613e-19
  ibd     -1.350e-14 -1.819e-14  4.759e-16  3.289e-13  3.404e-13 -4.644e-15
  vgs      7.343e-01  5.147e-01 -9.058e-01 -8.330e-01 -8.330e-01  5.967e-01
  vds      9.343e-01  1.065e+00 -4.670e-01 -2.236e+00 -2.243e+00  5.967e-01
  vbs     -1.065e+00    0.         0.         0.         0.         0.     
  vth      8.045e-01  5.657e-01 -7.520e-01 -7.564e-01 -7.564e-01  5.345e-01
  vdsat    4.977e-02  4.990e-02 -1.923e-01 -1.334e-01 -1.333e-01  1.076e-01
  vod     -7.025e-02 -5.103e-02 -1.538e-01 -7.657e-02 -7.655e-02  6.218e-02
  beta     5.630e-03  3.406e-03  6.424e-05  7.579e-05  7.579e-05  1.171e-04
  gam eff  5.738e-01  5.599e-01  4.097e-01  4.002e-01  4.002e-01  4.547e-01
  gm       2.540e-05  2.323e-05  9.660e-06  6.328e-06  6.327e-06  7.528e-06
  gds      4.753e-07  3.442e-07  4.190e-08  1.408e-08  1.407e-08  1.046e-08
  gmb      4.686e-06  6.455e-06  2.268e-06  1.501e-06  1.501e-06  2.238e-06
  cdtot    1.090e-14  7.309e-15  7.534e-15  6.749e-15  6.742e-15  4.161e-15
  cgtot    7.001e-15  4.896e-15  8.017e-14  8.526e-14  8.525e-14  4.283e-14
  cstot    1.183e-14  8.812e-15  9.611e-14  9.564e-14  9.563e-14  4.679e-14
  cbtot    2.142e-14  1.601e-14  4.098e-14  4.836e-14  4.835e-14  2.665e-14
  cgs      2.077e-15  1.252e-15  6.913e-14  6.717e-14  6.715e-14  3.217e-14
  cgd      2.077e-15  1.252e-15  9.242e-16  1.116e-15  1.116e-15  6.333e-16



 subckt   xtri       xtri       xtri       xgm        xgm        xgm       
 element  1:m4       1:ma1      1:ma2      2:mo3a     2:mo4a     2:mo1     
 model    0:nch.1    0:pch.2    0:nch.2    0:pch.1    0:pch.1    0:nch.2   
 region     Saturati   Saturati   Saturati   Saturati   Saturati   Saturati
  id       5.003e-07 -1.540e-05  1.499e-05 -9.285e-06 -9.281e-06  9.284e-06
  ibs     -8.612e-19  3.060e-18 -2.194e-17  1.863e-18  1.862e-18 -1.463e-17
  ibd     -4.644e-15  1.203e-14 -1.685e-09  4.587e-16  4.583e-16 -6.370e-10
  vgs      5.967e-01 -9.058e-01  5.890e-01 -1.319e+00 -1.319e+00  6.680e-01
  vds      5.890e-01 -1.291e+00  2.008e+00 -1.319e+00 -1.295e+00  1.980e+00
  vbs        0.         0.         0.         0.         0.         0.     
  vth      5.345e-01 -7.515e-01  5.661e-01 -7.510e-01 -7.511e-01  5.615e-01
  vdsat    1.076e-01 -1.985e-01  7.734e-02 -5.587e-01 -5.586e-01  1.278e-01
  vod      6.217e-02 -1.542e-01  2.297e-02 -5.687e-01 -5.687e-01  1.065e-01
  beta     1.171e-04  9.120e-04  7.795e-03  5.773e-05  5.773e-05  1.237e-03
  gam eff  4.547e-01  3.952e-01  4.732e-01  4.091e-01  4.091e-01  4.699e-01
  gm       7.527e-06  1.519e-04  2.875e-04  2.964e-05  2.963e-05  1.236e-04
  gds      1.051e-08  1.425e-06  1.440e-06  1.387e-07  1.412e-07  5.977e-07
  gmb      2.237e-06  3.311e-05  8.380e-05  6.923e-06  6.920e-06  3.575e-05
  cdtot    4.166e-15  1.905e-14  3.698e-14  5.911e-15  5.939e-15  6.436e-15
  cgtot    4.283e-14  5.210e-14  7.122e-14  7.969e-14  7.969e-14  1.911e-14
  cstot    4.679e-14  7.919e-14  8.840e-14  9.644e-14  9.644e-14  2.707e-14
  cbtot    2.666e-14  5.546e-14  1.069e-13  3.770e-14  3.773e-14  1.924e-14
  cgs      3.217e-14  4.371e-14  3.694e-14  7.019e-14  7.019e-14  1.516e-14
  cgd      6.333e-16  2.946e-15  7.167e-15  8.876e-16  8.876e-16  1.190e-15



 subckt   xgm        xgm        xtro       xtro       xtro       xtro      
 element  2:mo2      2:mb       3:mo3a     3:mo4a     3:mo1      3:mo2     
 model    0:nch.2    0:pch.2    0:pch.1    0:pch.1    0:nch.2    0:nch.2   
 region     Saturati   Saturati   Saturati   Saturati   Saturati   Saturati
  id       9.280e-06 -4.275e-06 -9.289e-06 -9.284e-06  9.289e-06  9.284e-06
  ibs     -1.462e-17  8.579e-19  1.864e-18  1.863e-18 -1.463e-17 -1.462e-17
  ibd     -7.469e-10  4.759e-16  4.587e-16  4.582e-16 -6.365e-10 -7.957e-10
  vgs      6.678e-01 -9.058e-01 -1.319e+00 -1.319e+00  6.680e-01  6.678e-01
  vds      2.004e+00 -5.830e-01 -1.319e+00 -1.285e+00  1.980e+00  2.014e+00
  vbs        0.         0.         0.         0.         0.         0.     
  vth      5.615e-01 -7.586e-01 -7.510e-01 -7.511e-01  5.615e-01  5.614e-01
  vdsat    1.278e-01 -1.922e-01 -5.588e-01 -5.588e-01  1.279e-01  1.278e-01
  vod      1.064e-01 -1.471e-01 -5.689e-01 -5.688e-01  1.065e-01  1.064e-01
  beta     1.237e-03  2.799e-04  5.772e-05  5.772e-05  1.237e-03  1.237e-03
  gam eff  4.699e-01  3.951e-01  4.091e-01  4.091e-01  4.699e-01  4.699e-01
  gm       1.236e-04  4.318e-05  2.965e-05  2.963e-05  1.236e-04  1.236e-04
  gds      5.988e-07  5.594e-07  1.387e-07  1.424e-07  5.978e-07  5.995e-07
  gmb      3.575e-05  9.404e-06  6.924e-06  6.920e-06  3.576e-05  3.575e-05
  cdtot    6.425e-15  7.280e-15  5.911e-15  5.951e-15  6.437e-15  6.421e-15
  cgtot    1.910e-14  1.647e-14  7.969e-14  7.969e-14  1.911e-14  1.910e-14
  cstot    2.706e-14  2.507e-14  9.644e-14  9.644e-14  2.707e-14  2.706e-14
  cbtot    1.923e-14  1.913e-14  3.770e-14  3.774e-14  1.924e-14  1.922e-14
  cgs      1.516e-14  1.367e-14  7.019e-14  7.019e-14  1.516e-14  1.515e-14
  cgd      1.190e-15  9.242e-16  8.876e-16  8.876e-16  1.190e-15  1.190e-15



 subckt   xtro       xien       xien       xien       xien       xien      
 element  3:mb       4:mb       4:m1       4:m2       4:m3       4:m4      
 model    0:pch.2    0:pch.1    0:pch.1    0:pch.1    0:nch.1    0:nch.1   
 region     Saturati   Saturati   Saturati   Saturati   Saturati   Saturati
  id      -4.275e-06 -2.631e-06 -1.315e-06 -1.315e-06  1.315e-06  1.315e-06
  ibs      8.580e-19  5.203e-19  2.630e-19  2.630e-19 -2.264e-18 -2.264e-18
  ibd      4.759e-16  1.106e-15  6.399e-13  6.043e-13 -4.644e-15 -4.644e-15
  vgs     -9.058e-01 -9.058e-01 -9.080e-01 -9.080e-01  6.710e-01  6.710e-01
  vds     -5.836e-01 -3.920e-01 -2.237e+00 -2.225e+00  6.710e-01  6.829e-01
  vbs        0.         0.         0.         0.         0.         0.     
  vth     -7.586e-01 -7.452e-01 -7.471e-01 -7.471e-01  5.345e-01  5.344e-01
  vdsat   -1.922e-01 -1.991e-01 -1.985e-01 -1.985e-01  1.590e-01  1.590e-01
  vod     -1.471e-01 -1.605e-01 -1.609e-01 -1.609e-01  1.366e-01  1.366e-01
  beta     2.799e-04  1.577e-04  7.762e-05  7.762e-05  1.166e-04  1.166e-04
  gam eff  3.951e-01  4.181e-01  4.121e-01  4.121e-01  4.547e-01  4.547e-01
  gm       4.319e-05  2.480e-05  1.239e-05  1.239e-05  1.455e-05  1.455e-05
  gds      5.592e-07  1.442e-07  2.595e-08  2.598e-08  2.055e-08  2.040e-08
  gmb      9.405e-06  5.866e-06  2.915e-06  2.916e-06  4.291e-06  4.291e-06
  cdtot    7.278e-15  1.752e-14  6.259e-15  6.269e-15  4.115e-15  4.108e-15
  cgtot    1.647e-14  1.892e-13  9.589e-14  9.589e-14  5.069e-14  5.069e-14
  cstot    2.507e-14  2.302e-13  1.155e-13  1.155e-13  6.017e-14  6.017e-14
  cbtot    1.913e-14  9.405e-14  4.586e-14  4.587e-14  2.725e-14  2.724e-14
  cgs      1.367e-14  1.659e-13  8.313e-14  8.313e-14  4.226e-14  4.226e-14
  cgd      9.242e-16  2.205e-15  1.107e-15  1.107e-15  6.333e-16  6.333e-16



 subckt   xien       xien       xien       xien       xgm.x1     xgm.x1    
 element  4:me1p     4:me2p     4:me1n     4:me2n     5:ms       5:min     
 model    0:pch.3    0:pch.3    0:nch.3    0:nch.3    0:pch.1    0:pch.1   
 region     Saturati   Saturati   Saturati   Saturati   Saturati   Saturati
  id      -1.022e-05 -1.022e-04  1.026e-05  1.026e-04 -2.139e-06 -2.139e-06
  ibs      2.024e-18  2.024e-17 -1.911e-17 -1.911e-16  4.448e-19  2.959e-16
  ibd      5.642e-14  5.648e-13 -2.074e-09 -2.073e-08  2.061e-16  2.968e-16
  vgs     -8.000e-01 -8.000e-01  6.829e-01  6.829e-01 -1.026e+00 -1.023e+00
  vds     -1.300e+00 -1.300e+00  2.000e+00  2.000e+00 -1.026e+00 -1.023e+00
  vbs        0.         0.         0.         0.         0.       3.138e-01
  vth     -6.959e-01 -6.959e-01  5.535e-01  5.535e-01 -7.668e-01 -8.234e-01
  vdsat   -1.370e-01 -1.370e-01  1.349e-01  1.349e-01 -2.829e-01 -2.361e-01
  vod     -1.041e-01 -1.041e-01  1.294e-01  1.294e-01 -2.592e-01 -1.996e-01
  beta     1.255e-03  1.255e-02  1.031e-03  1.031e-02  5.640e-05  8.688e-05
  gam eff  4.626e-01  4.626e-01  5.352e-01  5.352e-01  3.892e-01  3.974e-01
  gm       1.380e-04  1.380e-03  1.267e-04  1.267e-03  1.432e-05  1.772e-05
  gds      4.132e-06  4.132e-05  1.769e-06  1.769e-05  1.166e-07  1.211e-07
  gmb      2.912e-05  2.912e-04  3.338e-05  3.338e-04  3.170e-06  3.385e-06
  cdtot    1.174e-14  1.174e-13  2.576e-15  2.576e-14  2.968e-15  3.895e-15
  cgtot    1.243e-14  1.243e-13  3.197e-15  3.197e-14  1.406e-14  2.022e-14
  cstot    2.630e-14  2.630e-13  5.904e-15  5.904e-14  1.839e-14  2.552e-14
  cbtot    2.858e-14  2.858e-13  6.076e-15  6.076e-14  1.082e-14  1.340e-14
  cgs      8.952e-15  8.952e-14  2.327e-15  2.327e-14  1.172e-14  1.730e-14
  cgd      1.839e-15  1.839e-14  4.270e-16  4.270e-15  3.751e-16  5.582e-16



 subckt   xgm.x1     xgm.x2     xgm.x2     xgm.x2     xtro.x1    xtro.x1   
 element  5:mn       6:ms       6:min      6:mn       7:ms       7:min     
 model    0:nch.1    0:pch.1    0:pch.1    0:nch.1    0:pch.1    0:pch.1   
 region     Saturati   Saturati   Saturati   Saturati   Saturati   Saturati
  id       2.139e-06 -2.136e-06 -2.136e-06  2.136e-06 -2.140e-06 -2.140e-06
  ibs     -3.421e-18  4.441e-19  2.959e-16 -3.416e-18  4.450e-19  2.959e-16
  ibd     -7.055e-15  2.061e-16  2.968e-16 -7.055e-15  2.061e-16  2.968e-16
  vgs      6.680e-01 -1.025e+00 -1.023e+00  6.678e-01 -1.026e+00 -1.022e+00
  vds      6.680e-01 -1.025e+00 -1.023e+00  6.678e-01 -1.026e+00 -1.022e+00
  vbs        0.         0.       3.169e-01    0.         0.       3.097e-01
  vth      5.378e-01 -7.668e-01 -8.240e-01  5.378e-01 -7.668e-01 -8.226e-01
  vdsat    1.565e-01 -2.827e-01 -2.359e-01  1.564e-01 -2.830e-01 -2.361e-01
  vod      1.302e-01 -2.590e-01 -1.994e-01  1.300e-01 -2.593e-01 -1.997e-01
  beta     2.004e-04  5.640e-05  8.687e-05  2.004e-04  5.640e-05  8.690e-05
  gam eff  4.621e-01  3.892e-01  3.974e-01  4.621e-01  3.892e-01  3.974e-01
  gm       2.416e-05  1.431e-05  1.770e-05  2.414e-05  1.433e-05  1.772e-05
  gds      3.587e-08  1.164e-07  1.209e-07  3.583e-08  1.166e-07  1.212e-07
  gmb      7.212e-06  3.168e-06  3.378e-06  7.205e-06  3.171e-06  3.392e-06
  cdtot    6.495e-15  2.968e-15  3.892e-15  6.496e-15  2.968e-15  3.898e-15
  cgtot    8.207e-14  1.406e-14  2.021e-14  8.206e-14  1.406e-14  2.022e-14
  cstot    9.838e-14  1.839e-14  2.550e-14  9.835e-14  1.839e-14  2.553e-14
  cbtot    4.346e-14  1.082e-14  1.339e-14  4.346e-14  1.082e-14  1.342e-14
  cgs      6.908e-14  1.172e-14  1.730e-14  6.906e-14  1.172e-14  1.730e-14
  cgd      1.046e-15  3.751e-16  5.582e-16  1.046e-15  3.751e-16  5.582e-16



 subckt   xtro.x1    xtro.x2    xtro.x2    xtro.x2   
 element  7:mn       8:ms       8:min      8:mn      
 model    0:nch.1    0:pch.1    0:pch.1    0:nch.1   
 region     Saturati   Saturati   Saturati   Saturati
  id       2.140e-06 -2.135e-06 -2.135e-06  2.135e-06
  ibs     -3.423e-18  4.440e-19  2.959e-16 -3.415e-18
  ibd     -7.055e-15  2.061e-16  2.968e-16 -7.055e-15
  vgs      6.680e-01 -1.025e+00 -1.022e+00  6.678e-01
  vds      6.680e-01 -1.025e+00 -1.022e+00  6.678e-01
  vbs        0.         0.       3.141e-01    0.     
  vth      5.378e-01 -7.668e-01 -8.234e-01  5.378e-01
  vdsat    1.565e-01 -2.827e-01 -2.359e-01  1.564e-01
  vod      1.302e-01 -2.589e-01 -1.994e-01  1.300e-01
  beta     2.004e-04  5.640e-05  8.688e-05  2.004e-04
  gam eff  4.621e-01  3.892e-01  3.974e-01  4.621e-01
  gm       2.417e-05  1.431e-05  1.770e-05  2.413e-05
  gds      3.588e-08  1.164e-07  1.209e-07  3.582e-08
  gmb      7.214e-06  3.167e-06  3.381e-06  7.204e-06
  cdtot    6.495e-15  2.968e-15  3.895e-15  6.496e-15
  cgtot    8.207e-14  1.406e-14  2.021e-14  8.206e-14
  cstot    9.838e-14  1.839e-14  2.551e-14  9.835e-14
  cbtot    4.346e-14  1.082e-14  1.340e-14  4.346e-14
  cgs      6.908e-14  1.172e-14  1.730e-14  6.906e-14
  cgd      1.046e-15  3.751e-16  5.582e-16  1.046e-15




          ***** job concluded
1****** HSPICE -- B-2008.09-SP1 32-BIT (Nov 24 2008) linux ******               
 ******  
 *new_looptest

  ******  job statistics summary tnom=  25.000 temp=  25.000 *****

  ******  HSPICE Threads Information  ******
  Command Line Threads Count:                      0
  Available CPU Count:                             8
  Actual Model Evaluation(Load) Threads Count:     1
  Actual Solver Threads Count:                     1


  ******  Circuit Statistics  ******
  # nodes       =     137  # elements   =      68
  # resistors   =       1  # capacitors =       3  # inductors   =       0
  # mutual_inds =       0  # vccs       =       0  # vcvs        =       0
  # cccs        =       0  # ccvs       =       0  # volt_srcs   =      16
  # curr_srcs   =       2  # diodes     =       0  # bjts        =       0
  # jfets       =       0  # mosfets    =      46  # U elements  =       0
  # T elements  =       0  # W elements =       0  # B elements  =       0
  # S elements  =       0  # P elements =       0  # va device   =       0


  ******  Runtime Statistics (seconds)  ******

  analysis           time    # points   tot. iter  conv.iter
  op point           0.10           1         655
  readin             0.04
  errchk             0.01
  setup              0.00
  output             0.00


           total memory used          844  kbytes
           total cpu time            0.15 seconds
           total elapsed time        0.30 seconds
           job started at     14:08:04 02/15/2016
           job ended   at     14:08:04 02/15/2016


1****** HSPICE -- B-2008.09-SP1 32-BIT (Nov 24 2008) linux ******               
 ******  
  *all

  ******    alter processing listing tnom=  25.000 temp=  25.000 *****
 .lib 'test.l' all
     vfc to_out vnw dc = 1.5 ac = 1 *sin(1.5 0.1 1k 1ns)
     *.ac wx 0.4u 20u 0.1u
     *.noise
     .param ins_ = 0
     inw nwd vss dc = ins_
     .dc ins_ dec 1000 100n 3u
     .ac dec 1000 1 1g
     .pz v(ti_out) vfc
     ***test***
     mt vdt vgt vst vst nch w = wx l = 0.4u m = 1
     it vst vss dc = 'pbi-ins_'
     vtg vgt gnd dc = 0.7
     vtd vdt gnd dc = 1.2v
     .probe dc lx2(mt) i(mt)
 .endl

 ***loop gain test***
 .alter * on vnw
 $ alter processing continues $


 **warning**  the accurate option increases  the cpu time but the results
                are more accurate.
 ***accurate option sets default value of the options: 
 lvltim= 4         dvdt= 3       relvar= 200.00m absvar= 200.00m
     ft= 200.00m relmos=  10.00m
 (used for FFT control ) fft_accurate= 1
1****** HSPICE -- B-2008.09-SP1 32-BIT (Nov 24 2008) linux ******               
 ******  
  *all

  ******  circuit name directory
 circuit number to circuit name directory
   number circuitname                     definition         multiplier
        0 main circuit
        1 xtri.                           tr                 1.00 
        2 xgm.                            gm                 1.00 
        3 xtro.                           gm                 1.00 
        4 xien.                           ien                1.00 
        5 xgm.x1.                         gmx                1.00 
        6 xgm.x2.                         gmx                1.00 
        7 xtro.x1.                        gmx                1.00 
        8 xtro.x2.                        gmx                1.00 
 
      
  Opening plot unit= 15
 file=new_loopTest.pa1                                                         

  *** gshunt ramping started *** 
  *** gshunt ramping succeeded *** 
1****** HSPICE -- B-2008.09-SP1 32-BIT (Nov 24 2008) linux ******               
 ******  
  *all

  ******  operating point information tnom=  25.000 temp=  25.000 *****
 ***** operating point status is all       simulation time is     0.     
    node    =voltage      node    =voltage      node    =voltage

 +0:c0      = 1.225e+00 0:cn      = 4.499e-01 0:cp      = 2.700e+00
 +0:cz      = 2.394e+00 0:eb      = 2.500e+00 0:gm_in   = 2.008e+00
 +0:gm_out  = 2.004e+00 0:ien_in  = 2.000e+00 0:ien_out = 2.000e+00
 +0:nwd     = 1.065e+00 0:opb     = 2.000e+00 0:out     = 2.000e+00
 +0:ti_in   = 2.000e+00 0:ti_out  = 2.008e+00 0:to_in   = 2.004e+00
 +0:to_out  = 2.014e+00 0:vdd     = 3.300e+00 0:vdt     = 1.200e+00
 +0:vgn     = 1.800e+00 0:vgt     = 7.000e-01 0:vnw     = 5.147e-01
 +0:vss     =   0.      0:vst     = 1.829e-01 1:1       = 5.967e-01
 +1:2       = 5.890e-01 1:b       = 2.833e+00 2:bd      = 2.717e+00
 +2:ggn     = 6.678e-01 2:ggp     = 6.680e-01 2:idn     = 6.678e-01
 +2:idp     = 6.680e-01 2:io1     = 1.980e+00 2:sdn     = 1.691e+00
 +2:sdp     = 1.691e+00 3:bd      = 2.716e+00 3:ggn     = 6.678e-01
 +3:ggp     = 6.680e-01 3:idn     = 6.678e-01 3:idp     = 6.680e-01
 +3:io1     = 1.980e+00 3:sdn     = 1.690e+00 3:sdp     = 1.690e+00
 +4:b       = 2.908e+00 4:von     = 6.710e-01 4:vop     = 6.829e-01


 maximum nodal capacitance=   1.003E-11         on node     0:gm_out          

    nodal  capacitance table 

    node    =    cap      node    =    cap      node    =    cap

 +0:c0      = 1.793e-14 0:cn      = 7.945e-14 0:cp      = 8.232e-14
 +0:cz      = 3.918e-13 0:eb      = 1.367e-13 0:gm_in   = 1.339e-14
 +0:gm_out  = 1.003e-11 0:ien_in  = 1.110e-12 0:ien_out = 1.432e-13
 +0:nwd     = 1.914e-14 0:opb     = 1.946e-13 0:out     = 1.090e-14
 +0:ti_in   = 8.526e-14 0:ti_out  = 1.056e-12 0:to_in   = 1.340e-14
 +0:to_out  = 1.237e-14 0:vdd     = 2.057e-12 0:vdt     = 7.349e-15
 +0:vgn     = 7.001e-15 0:vgt     = 4.894e-15 0:vnw     = 4.896e-15
 +0:vss     = 1.649e-12 0:vst     = 2.486e-14 1:1       = 9.656e-14
 +1:2       = 1.082e-12 1:b       = 2.955e-13 2:bd      = 6.569e-14
 +2:ggn     = 1.012e-13 2:ggp     = 1.012e-13 2:idn     = 3.060e-14
 +2:idp     = 3.061e-14 2:io1     = 1.717e-13 2:sdn     = 4.253e-14
 +2:sdp     = 4.254e-14 3:bd      = 6.569e-14 3:ggn     = 1.012e-13
 +3:ggp     = 1.012e-13 3:idn     = 3.060e-14 3:idp     = 3.061e-14
 +3:io1     = 1.717e-13 3:sdn     = 4.254e-14 3:sdp     = 4.255e-14
 +4:b       = 3.402e-13 4:von     = 1.118e-13 4:vop     = 1.046e-12

 

 ****  voltage sources

 subckt                                                                    
 element  0:veb      0:vng      0:vc1      0:vc2      0:vc3      0:vc4     
  volts    2.500e+00  1.800e+00    0.         0.         0.         0.     
  current    0.         0.       4.136e-08 -4.092e-07  1.658e-12  1.652e-12
  power      0.         0.         0.         0.         0.         0.     

 subckt                                                                    
 element  0:vfc      0:vopbias  0:vd       0:vs       0:vtg      0:vtd     
  volts    1.500e+00  2.000e+00  3.300e+00    0.       7.000e-01  1.200e+00
  current -5.551e-17 -1.642e-12 -1.796e-04  1.806e-04    0.      -1.000e-06
  power    8.327e-17  3.285e-12  5.927e-04    0.         0.       1.200e-06

 subckt   xgm        xgm        xtro       xtro      
 element  2:v0       2:v1       3:v0       3:v1      
  volts      0.         0.         0.         0.     
  current -2.776e-17    0.       1.388e-17  2.776e-17
  power      0.         0.         0.         0.     

     total voltage source power dissipation=  5.939e-04       watts



 ***** current sources

 subckt                                              
 element  0:ic       0:ip       0:inw      0:it      
  volts    2.700e+00  1.300e+00  1.065e+00  1.829e-01
  current  5.000e-07  1.000e-06    0.       1.000e-06
  power   -1.350e-06 -1.300e-06    0.      -1.829e-07


     total current source power dissipation=-2.833e-06       watts

 **** resistors

 subckt   xtri      
 element  1:rl      
  r value  2.000e+04
  v drop   8.184e-03
  current  4.092e-07
  power    3.349e-09



 **** mosfets


 subckt                                                                    
 element  0:mc0      0:mc1      0:mc2      0:mc3      0:mcx      0:mcz     
 model    0:pch.3    0:pch.3    0:pch.6    0:nch.3    0:pch.5    0:nch.2   
 region       Cutoff     Cutoff   Saturati     Cutoff   Saturati     Cutoff
  id      -5.000e-07 -3.747e-07 -3.747e-07  3.747e-07 -6.069e-07  6.063e-07
  ibs      1.004e-19  7.527e-20  8.207e-20 -5.981e-19  1.329e-19 -9.126e-19
  ibd      3.331e-15  2.494e-12  1.159e-16 -2.153e-14  1.160e-16 -5.585e-10
  vgs     -5.993e-01 -5.993e-01 -7.753e-01  4.499e-01 -9.058e-01  4.499e-01
  vds     -5.993e-01 -2.074e+00 -7.753e-01  4.499e-01 -9.058e-01  2.394e+00
  vbs        0.         0.         0.         0.         0.         0.     
  vth     -7.198e-01 -6.799e-01 -7.454e-01  5.699e-01 -7.778e-01  5.635e-01
  vdsat   -4.893e-02 -5.365e-02 -1.021e-01  4.412e-02 -1.747e-01  4.465e-02
  vod      1.205e-01  8.054e-02 -2.990e-02 -1.199e-01 -1.280e-01 -1.136e-01
  beta     4.335e-03  1.252e-03  1.063e-04  8.618e-03  4.825e-05  6.708e-03
  gam eff  4.553e-01  4.553e-01  4.082e-01  5.577e-01  3.889e-01  4.720e-01
  gm       1.151e-05  8.252e-06  5.574e-06  9.828e-06  6.523e-06  1.525e-05
  gds      3.541e-07  2.330e-07  1.632e-07  1.620e-07  6.154e-08  8.384e-08
  gmb      2.576e-06  1.809e-06  1.177e-06  2.825e-06  1.414e-06  4.592e-06
  cdtot    5.072e-14  1.084e-14  1.895e-15  2.054e-14  1.835e-15  3.189e-14
  cgtot    2.458e-14  7.023e-15  9.699e-16  1.269e-14  3.685e-15  4.335e-14
  cstot    6.271e-14  1.792e-14  2.700e-15  2.275e-14  5.690e-15  4.284e-14
  cbtot    1.121e-13  2.838e-14  4.394e-15  4.318e-14  5.204e-15  9.314e-14
  cgs      6.469e-15  1.848e-15  3.889e-16  3.200e-15  2.762e-15  6.232e-15
  cgd      6.469e-15  1.848e-15  1.922e-16  3.200e-15  1.922e-16  6.232e-15



 subckt                                    xtri       xtri       xtri      
 element  0:mc       0:mnw      0:mt       1:mb       1:m1       1:m2      
 model    0:nch.3    0:nch.3    0:nch.3    0:pch.1    0:pch.1    0:pch.1   
 region       Cutoff     Cutoff     Cutoff   Saturati   Saturati   Saturati
  id       9.586e-07  9.586e-07  1.000e-06 -1.001e-06 -5.003e-07 -5.003e-07
  ibs     -1.308e-14 -1.504e-18 -1.568e-18  2.009e-19  1.022e-19  1.021e-19
  ibd     -1.350e-14 -1.819e-14 -1.178e-14  4.759e-16  3.289e-13  3.404e-13
  vgs      7.343e-01  5.147e-01  5.171e-01 -9.058e-01 -8.330e-01 -8.330e-01
  vds      9.343e-01  1.065e+00  1.017e+00 -4.670e-01 -2.236e+00 -2.243e+00
  vbs     -1.065e+00    0.         0.         0.         0.         0.     
  vth      8.045e-01  5.657e-01  5.661e-01 -7.520e-01 -7.564e-01 -7.564e-01
  vdsat    4.977e-02  4.990e-02  5.022e-02 -1.923e-01 -1.334e-01 -1.333e-01
  vod     -7.025e-02 -5.103e-02 -4.893e-02 -1.538e-01 -7.657e-02 -7.655e-02
  beta     5.630e-03  3.406e-03  3.406e-03  6.424e-05  7.579e-05  7.579e-05
  gam eff  5.738e-01  5.599e-01  5.599e-01  4.097e-01  4.002e-01  4.002e-01
  gm       2.540e-05  2.323e-05  2.418e-05  9.660e-06  6.328e-06  6.327e-06
  gds      4.753e-07  3.442e-07  3.599e-07  4.190e-08  1.408e-08  1.407e-08
  gmb      4.686e-06  6.455e-06  6.719e-06  2.268e-06  1.501e-06  1.501e-06
  cdtot    1.090e-14  7.309e-15  7.349e-15  7.534e-15  6.749e-15  6.742e-15
  cgtot    7.001e-15  4.896e-15  4.894e-15  8.017e-14  8.526e-14  8.525e-14
  cstot    1.183e-14  8.812e-15  8.812e-15  9.611e-14  9.564e-14  9.563e-14
  cbtot    2.142e-14  1.601e-14  1.605e-14  4.098e-14  4.836e-14  4.835e-14
  cgs      2.077e-15  1.252e-15  1.252e-15  6.913e-14  6.717e-14  6.715e-14
  cgd      2.077e-15  1.252e-15  1.252e-15  9.242e-16  1.116e-15  1.116e-15



 subckt   xtri       xtri       xtri       xtri       xgm        xgm       
 element  1:m3       1:m4       1:ma1      1:ma2      2:mo3a     2:mo4a    
 model    0:nch.1    0:nch.1    0:pch.2    0:nch.2    0:pch.1    0:pch.1   
 region     Saturati   Saturati   Saturati   Saturati   Saturati   Saturati
  id       5.003e-07  5.003e-07 -1.540e-05  1.499e-05 -9.285e-06 -9.281e-06
  ibs     -8.613e-19 -8.612e-19  3.060e-18 -2.194e-17  1.863e-18  1.862e-18
  ibd     -4.644e-15 -4.644e-15  1.203e-14 -1.685e-09  4.587e-16  4.583e-16
  vgs      5.967e-01  5.967e-01 -9.058e-01  5.890e-01 -1.319e+00 -1.319e+00
  vds      5.967e-01  5.890e-01 -1.291e+00  2.008e+00 -1.319e+00 -1.295e+00
  vbs        0.         0.         0.         0.         0.         0.     
  vth      5.345e-01  5.345e-01 -7.515e-01  5.661e-01 -7.510e-01 -7.511e-01
  vdsat    1.076e-01  1.076e-01 -1.985e-01  7.734e-02 -5.587e-01 -5.586e-01
  vod      6.218e-02  6.217e-02 -1.542e-01  2.297e-02 -5.687e-01 -5.687e-01
  beta     1.171e-04  1.171e-04  9.120e-04  7.795e-03  5.773e-05  5.773e-05
  gam eff  4.547e-01  4.547e-01  3.952e-01  4.732e-01  4.091e-01  4.091e-01
  gm       7.528e-06  7.527e-06  1.519e-04  2.875e-04  2.964e-05  2.963e-05
  gds      1.046e-08  1.051e-08  1.425e-06  1.440e-06  1.387e-07  1.412e-07
  gmb      2.238e-06  2.237e-06  3.311e-05  8.380e-05  6.923e-06  6.920e-06
  cdtot    4.161e-15  4.166e-15  1.905e-14  3.698e-14  5.911e-15  5.939e-15
  cgtot    4.283e-14  4.283e-14  5.210e-14  7.122e-14  7.969e-14  7.969e-14
  cstot    4.679e-14  4.679e-14  7.919e-14  8.840e-14  9.644e-14  9.644e-14
  cbtot    2.665e-14  2.666e-14  5.546e-14  1.069e-13  3.770e-14  3.773e-14
  cgs      3.217e-14  3.217e-14  4.371e-14  3.694e-14  7.019e-14  7.019e-14
  cgd      6.333e-16  6.333e-16  2.946e-15  7.167e-15  8.876e-16  8.876e-16



 subckt   xgm        xgm        xgm        xtro       xtro       xtro      
 element  2:mo1      2:mo2      2:mb       3:mo3a     3:mo4a     3:mo1     
 model    0:nch.2    0:nch.2    0:pch.2    0:pch.1    0:pch.1    0:nch.2   
 region     Saturati   Saturati   Saturati   Saturati   Saturati   Saturati
  id       9.284e-06  9.280e-06 -4.275e-06 -9.289e-06 -9.284e-06  9.289e-06
  ibs     -1.463e-17 -1.462e-17  8.579e-19  1.864e-18  1.863e-18 -1.463e-17
  ibd     -6.370e-10 -7.469e-10  4.759e-16  4.587e-16  4.582e-16 -6.365e-10
  vgs      6.680e-01  6.678e-01 -9.058e-01 -1.319e+00 -1.319e+00  6.680e-01
  vds      1.980e+00  2.004e+00 -5.830e-01 -1.319e+00 -1.285e+00  1.980e+00
  vbs        0.         0.         0.         0.         0.         0.     
  vth      5.615e-01  5.615e-01 -7.586e-01 -7.510e-01 -7.511e-01  5.615e-01
  vdsat    1.278e-01  1.278e-01 -1.922e-01 -5.588e-01 -5.588e-01  1.279e-01
  vod      1.065e-01  1.064e-01 -1.471e-01 -5.689e-01 -5.688e-01  1.065e-01
  beta     1.237e-03  1.237e-03  2.799e-04  5.772e-05  5.772e-05  1.237e-03
  gam eff  4.699e-01  4.699e-01  3.951e-01  4.091e-01  4.091e-01  4.699e-01
  gm       1.236e-04  1.236e-04  4.318e-05  2.965e-05  2.963e-05  1.236e-04
  gds      5.977e-07  5.988e-07  5.594e-07  1.387e-07  1.424e-07  5.978e-07
  gmb      3.575e-05  3.575e-05  9.404e-06  6.924e-06  6.920e-06  3.576e-05
  cdtot    6.436e-15  6.425e-15  7.280e-15  5.911e-15  5.951e-15  6.437e-15
  cgtot    1.911e-14  1.910e-14  1.647e-14  7.969e-14  7.969e-14  1.911e-14
  cstot    2.707e-14  2.706e-14  2.507e-14  9.644e-14  9.644e-14  2.707e-14
  cbtot    1.924e-14  1.923e-14  1.913e-14  3.770e-14  3.774e-14  1.924e-14
  cgs      1.516e-14  1.516e-14  1.367e-14  7.019e-14  7.019e-14  1.516e-14
  cgd      1.190e-15  1.190e-15  9.242e-16  8.876e-16  8.876e-16  1.190e-15



 subckt   xtro       xtro       xien       xien       xien       xien      
 element  3:mo2      3:mb       4:mb       4:m1       4:m2       4:m3      
 model    0:nch.2    0:pch.2    0:pch.1    0:pch.1    0:pch.1    0:nch.1   
 region     Saturati   Saturati   Saturati   Saturati   Saturati   Saturati
  id       9.284e-06 -4.275e-06 -2.631e-06 -1.315e-06 -1.315e-06  1.315e-06
  ibs     -1.462e-17  8.580e-19  5.203e-19  2.630e-19  2.630e-19 -2.264e-18
  ibd     -7.957e-10  4.759e-16  1.106e-15  6.399e-13  6.043e-13 -4.644e-15
  vgs      6.678e-01 -9.058e-01 -9.058e-01 -9.080e-01 -9.080e-01  6.710e-01
  vds      2.014e+00 -5.836e-01 -3.920e-01 -2.237e+00 -2.225e+00  6.710e-01
  vbs        0.         0.         0.         0.         0.         0.     
  vth      5.614e-01 -7.586e-01 -7.452e-01 -7.471e-01 -7.471e-01  5.345e-01
  vdsat    1.278e-01 -1.922e-01 -1.991e-01 -1.985e-01 -1.985e-01  1.590e-01
  vod      1.064e-01 -1.471e-01 -1.605e-01 -1.609e-01 -1.609e-01  1.366e-01
  beta     1.237e-03  2.799e-04  1.577e-04  7.762e-05  7.762e-05  1.166e-04
  gam eff  4.699e-01  3.951e-01  4.181e-01  4.121e-01  4.121e-01  4.547e-01
  gm       1.236e-04  4.319e-05  2.480e-05  1.239e-05  1.239e-05  1.455e-05
  gds      5.995e-07  5.592e-07  1.442e-07  2.595e-08  2.598e-08  2.055e-08
  gmb      3.575e-05  9.405e-06  5.866e-06  2.915e-06  2.916e-06  4.291e-06
  cdtot    6.421e-15  7.278e-15  1.752e-14  6.259e-15  6.269e-15  4.115e-15
  cgtot    1.910e-14  1.647e-14  1.892e-13  9.589e-14  9.589e-14  5.069e-14
  cstot    2.706e-14  2.507e-14  2.302e-13  1.155e-13  1.155e-13  6.017e-14
  cbtot    1.922e-14  1.913e-14  9.405e-14  4.586e-14  4.587e-14  2.725e-14
  cgs      1.515e-14  1.367e-14  1.659e-13  8.313e-14  8.313e-14  4.226e-14
  cgd      1.190e-15  9.242e-16  2.205e-15  1.107e-15  1.107e-15  6.333e-16



 subckt   xien       xien       xien       xien       xien       xgm.x1    
 element  4:m4       4:me1p     4:me2p     4:me1n     4:me2n     5:ms      
 model    0:nch.1    0:pch.3    0:pch.3    0:nch.3    0:nch.3    0:pch.1   
 region     Saturati   Saturati   Saturati   Saturati   Saturati   Saturati
  id       1.315e-06 -1.022e-05 -1.022e-04  1.026e-05  1.026e-04 -2.139e-06
  ibs     -2.264e-18  2.024e-18  2.024e-17 -1.911e-17 -1.911e-16  4.448e-19
  ibd     -4.644e-15  5.642e-14  5.648e-13 -2.074e-09 -2.073e-08  2.061e-16
  vgs      6.710e-01 -8.000e-01 -8.000e-01  6.829e-01  6.829e-01 -1.026e+00
  vds      6.829e-01 -1.300e+00 -1.300e+00  2.000e+00  2.000e+00 -1.026e+00
  vbs        0.         0.         0.         0.         0.         0.     
  vth      5.344e-01 -6.959e-01 -6.959e-01  5.535e-01  5.535e-01 -7.668e-01
  vdsat    1.590e-01 -1.370e-01 -1.370e-01  1.349e-01  1.349e-01 -2.829e-01
  vod      1.366e-01 -1.041e-01 -1.041e-01  1.294e-01  1.294e-01 -2.592e-01
  beta     1.166e-04  1.255e-03  1.255e-02  1.031e-03  1.031e-02  5.640e-05
  gam eff  4.547e-01  4.626e-01  4.626e-01  5.352e-01  5.352e-01  3.892e-01
  gm       1.455e-05  1.380e-04  1.380e-03  1.267e-04  1.267e-03  1.432e-05
  gds      2.040e-08  4.132e-06  4.132e-05  1.769e-06  1.769e-05  1.166e-07
  gmb      4.291e-06  2.912e-05  2.912e-04  3.338e-05  3.338e-04  3.170e-06
  cdtot    4.108e-15  1.174e-14  1.174e-13  2.576e-15  2.576e-14  2.968e-15
  cgtot    5.069e-14  1.243e-14  1.243e-13  3.197e-15  3.197e-14  1.406e-14
  cstot    6.017e-14  2.630e-14  2.630e-13  5.904e-15  5.904e-14  1.839e-14
  cbtot    2.724e-14  2.858e-14  2.858e-13  6.076e-15  6.076e-14  1.082e-14
  cgs      4.226e-14  8.952e-15  8.952e-14  2.327e-15  2.327e-14  1.172e-14
  cgd      6.333e-16  1.839e-15  1.839e-14  4.270e-16  4.270e-15  3.751e-16



 subckt   xgm.x1     xgm.x1     xgm.x2     xgm.x2     xgm.x2     xtro.x1   
 element  5:min      5:mn       6:ms       6:min      6:mn       7:ms      
 model    0:pch.1    0:nch.1    0:pch.1    0:pch.1    0:nch.1    0:pch.1   
 region     Saturati   Saturati   Saturati   Saturati   Saturati   Saturati
  id      -2.139e-06  2.139e-06 -2.136e-06 -2.136e-06  2.136e-06 -2.140e-06
  ibs      2.959e-16 -3.421e-18  4.441e-19  2.959e-16 -3.416e-18  4.450e-19
  ibd      2.968e-16 -7.055e-15  2.061e-16  2.968e-16 -7.055e-15  2.061e-16
  vgs     -1.023e+00  6.680e-01 -1.025e+00 -1.023e+00  6.678e-01 -1.026e+00
  vds     -1.023e+00  6.680e-01 -1.025e+00 -1.023e+00  6.678e-01 -1.026e+00
  vbs      3.138e-01    0.         0.       3.169e-01    0.         0.     
  vth     -8.234e-01  5.378e-01 -7.668e-01 -8.240e-01  5.378e-01 -7.668e-01
  vdsat   -2.361e-01  1.565e-01 -2.827e-01 -2.359e-01  1.564e-01 -2.830e-01
  vod     -1.996e-01  1.302e-01 -2.590e-01 -1.994e-01  1.300e-01 -2.593e-01
  beta     8.688e-05  2.004e-04  5.640e-05  8.687e-05  2.004e-04  5.640e-05
  gam eff  3.974e-01  4.621e-01  3.892e-01  3.974e-01  4.621e-01  3.892e-01
  gm       1.772e-05  2.416e-05  1.431e-05  1.770e-05  2.414e-05  1.433e-05
  gds      1.211e-07  3.587e-08  1.164e-07  1.209e-07  3.583e-08  1.166e-07
  gmb      3.385e-06  7.212e-06  3.168e-06  3.378e-06  7.205e-06  3.171e-06
  cdtot    3.895e-15  6.495e-15  2.968e-15  3.892e-15  6.496e-15  2.968e-15
  cgtot    2.022e-14  8.207e-14  1.406e-14  2.021e-14  8.206e-14  1.406e-14
  cstot    2.552e-14  9.838e-14  1.839e-14  2.550e-14  9.835e-14  1.839e-14
  cbtot    1.340e-14  4.346e-14  1.082e-14  1.339e-14  4.346e-14  1.082e-14
  cgs      1.730e-14  6.908e-14  1.172e-14  1.730e-14  6.906e-14  1.172e-14
  cgd      5.582e-16  1.046e-15  3.751e-16  5.582e-16  1.046e-15  3.751e-16



 subckt   xtro.x1    xtro.x1    xtro.x2    xtro.x2    xtro.x2   
 element  7:min      7:mn       8:ms       8:min      8:mn      
 model    0:pch.1    0:nch.1    0:pch.1    0:pch.1    0:nch.1   
 region     Saturati   Saturati   Saturati   Saturati   Saturati
  id      -2.140e-06  2.140e-06 -2.135e-06 -2.135e-06  2.135e-06
  ibs      2.959e-16 -3.423e-18  4.440e-19  2.959e-16 -3.415e-18
  ibd      2.968e-16 -7.055e-15  2.061e-16  2.968e-16 -7.055e-15
  vgs     -1.022e+00  6.680e-01 -1.025e+00 -1.022e+00  6.678e-01
  vds     -1.022e+00  6.680e-01 -1.025e+00 -1.022e+00  6.678e-01
  vbs      3.097e-01    0.         0.       3.141e-01    0.     
  vth     -8.226e-01  5.378e-01 -7.668e-01 -8.234e-01  5.378e-01
  vdsat   -2.361e-01  1.565e-01 -2.827e-01 -2.359e-01  1.564e-01
  vod     -1.997e-01  1.302e-01 -2.589e-01 -1.994e-01  1.300e-01
  beta     8.690e-05  2.004e-04  5.640e-05  8.688e-05  2.004e-04
  gam eff  3.974e-01  4.621e-01  3.892e-01  3.974e-01  4.621e-01
  gm       1.772e-05  2.417e-05  1.431e-05  1.770e-05  2.413e-05
  gds      1.212e-07  3.588e-08  1.164e-07  1.209e-07  3.582e-08
  gmb      3.392e-06  7.214e-06  3.167e-06  3.381e-06  7.204e-06
  cdtot    3.898e-15  6.495e-15  2.968e-15  3.895e-15  6.496e-15
  cgtot    2.022e-14  8.207e-14  1.406e-14  2.021e-14  8.206e-14
  cstot    2.553e-14  9.838e-14  1.839e-14  2.551e-14  9.835e-14
  cbtot    1.342e-14  4.346e-14  1.082e-14  1.340e-14  4.346e-14
  cgs      1.730e-14  6.908e-14  1.172e-14  1.730e-14  6.906e-14
  cgd      5.582e-16  1.046e-15  3.751e-16  5.582e-16  1.046e-15



 ***************************************************
   ******   pole/zero analysis  
 **warning** underflow 1 time(s) in pole/zero analysis
 **warning** underflow 1 time(s) in pole/zero analysis
 **warning** underflow 1 time(s) in pole/zero analysis
 **warning** underflow 1 time(s) in pole/zero analysis
 **warning** underflow 1 time(s) in pole/zero analysis
 **warning** underflow 1 time(s) in pole/zero analysis
 **warning** underflow 1 time(s) in pole/zero analysis
 **warning** underflow 1 time(s) in pole/zero analysis
 **warning** underflow 1 time(s) in pole/zero analysis
 **warning** underflow 1 time(s) in pole/zero analysis
 **warning** underflow 1 time(s) in pole/zero analysis
 **warning** underflow 1 time(s) in pole/zero analysis
 **warning** underflow 1 time(s) in pole/zero analysis
 **warning** underflow 1 time(s) in pole/zero analysis
 **warning** underflow 1 time(s) in pole/zero analysis
 **warning** underflow 1 time(s) in pole/zero analysis
 **warning** underflow 1 time(s) in pole/zero analysis
 **warning** underflow 1 time(s) in pole/zero analysis
 **warning** underflow 1 time(s) in pole/zero analysis
 **warning** underflow 1 time(s) in pole/zero analysis
 **warning** underflow 1 time(s) in pole/zero analysis
 **warning** underflow 1 time(s) in pole/zero analysis
 **warning** underflow 1 time(s) in pole/zero analysis
 **warning** underflow 1 time(s) in pole/zero analysis
 **warning** underflow 1 time(s) in pole/zero analysis
 **warning** underflow 1 time(s) in pole/zero analysis
 **warning** underflow 1 time(s) in pole/zero analysis
 **warning** underflow 1 time(s) in pole/zero analysis
 **warning** underflow 1 time(s) in pole/zero analysis
 **warning** underflow 1 time(s) in pole/zero analysis
 **warning** underflow 1 time(s) in pole/zero analysis
 **warning** underflow 1 time(s) in pole/zero analysis
 **warning** underflow 1 time(s) in pole/zero analysis
 **warning** underflow 1 time(s) in pole/zero analysis
 **warning** underflow 1 time(s) in pole/zero analysis
 **warning** underflow 1 time(s) in pole/zero analysis
 **warning** underflow 1 time(s) in pole/zero analysis
 **warning** underflow 1 time(s) in pole/zero analysis
 **warning** underflow 1 time(s) in pole/zero analysis
 **warning** underflow 1 time(s) in pole/zero analysis
 **warning** underflow 1 time(s) in pole/zero analysis
 **warning** underflow 1 time(s) in pole/zero analysis
 **warning** underflow 1 time(s) in pole/zero analysis
 **warning** underflow 1 time(s) in pole/zero analysis
 **warning** underflow 1 time(s) in pole/zero analysis
 **warning** underflow 1 time(s) in pole/zero analysis
 **warning** underflow 1 time(s) in pole/zero analysis
 **warning** underflow 1 time(s) in pole/zero analysis
 **warning** underflow 1 time(s) in pole/zero analysis
 **warning** underflow 1 time(s) in pole/zero analysis
 **warning** underflow 1 time(s) in pole/zero analysis
 **warning** underflow 1 time(s) in pole/zero analysis
 **warning** underflow 1 time(s) in pole/zero analysis
 **warning** underflow 1 time(s) in pole/zero analysis
 **warning** underflow 1 time(s) in pole/zero analysis
 **warning** underflow 1 time(s) in pole/zero analysis
 **warning** underflow 1 time(s) in pole/zero analysis
 **warning** underflow 1 time(s) in pole/zero analysis
 **warning** underflow 1 time(s) in pole/zero analysis
 **warning** underflow 1 time(s) in pole/zero analysis
 **warning** underflow 1 time(s) in pole/zero analysis
 **warning** underflow 1 time(s) in pole/zero analysis
 **warning** underflow 1 time(s) in pole/zero analysis
 **warning** underflow 1 time(s) in pole/zero analysis
 **warning** underflow 1 time(s) in pole/zero analysis
 **warning** underflow 1 time(s) in pole/zero analysis
 **warning** underflow 1 time(s) in pole/zero analysis
 **warning** underflow 1 time(s) in pole/zero analysis
 **warning** underflow 1 time(s) in pole/zero analysis
 **warning** underflow 1 time(s) in pole/zero analysis
 **warning** underflow 1 time(s) in pole/zero analysis
 **warning** underflow 1 time(s) in pole/zero analysis
 **warning** underflow 1 time(s) in pole/zero analysis
 **warning** underflow 1 time(s) in pole/zero analysis
 **warning** underflow 1 time(s) in pole/zero analysis
 **warning** underflow 1 time(s) in pole/zero analysis
 **warning** underflow 1 time(s) in pole/zero analysis
 **warning** underflow 1 time(s) in pole/zero analysis
 **warning** underflow 1 time(s) in pole/zero analysis
 **warning** underflow 1 time(s) in pole/zero analysis
 **warning** underflow 1 time(s) in pole/zero analysis
 **warning** underflow 1 time(s) in pole/zero analysis
 **warning** underflow 1 time(s) in pole/zero analysis
 **warning** underflow 1 time(s) in pole/zero analysis
 **warning** underflow 1 time(s) in pole/zero analysis
 **warning** underflow 1 time(s) in pole/zero analysis
 **warning** underflow 1 time(s) in pole/zero analysis
 **warning** underflow 1 time(s) in pole/zero analysis
 **warning** underflow 1 time(s) in pole/zero analysis
 **warning** underflow 1 time(s) in pole/zero analysis
 **warning** underflow 1 time(s) in pole/zero analysis
 **warning** underflow 1 time(s) in pole/zero analysis
 **warning** underflow 1 time(s) in pole/zero analysis
 **warning** underflow 1 time(s) in pole/zero analysis
 **warning** underflow 1 time(s) in pole/zero analysis
 **warning** underflow 1 time(s) in pole/zero analysis
 **warning** underflow 1 time(s) in pole/zero analysis
 **warning** underflow 1 time(s) in pole/zero analysis
 **warning** underflow 1 time(s) in pole/zero analysis
 **warning** underflow 1 time(s) in pole/zero analysis
 **warning** underflow 1 time(s) in pole/zero analysis
 **warning** underflow 1 time(s) in pole/zero analysis
 **warning** underflow 1 time(s) in pole/zero analysis
 **warning** underflow 1 time(s) in pole/zero analysis
 **warning** underflow 1 time(s) in pole/zero analysis
 **warning** underflow 1 time(s) in pole/zero analysis
 **warning** underflow 1 time(s) in pole/zero analysis
 **warning** underflow 1 time(s) in pole/zero analysis
 **warning** underflow 1 time(s) in pole/zero analysis
 **warning** underflow 1 time(s) in pole/zero analysis
 **warning** underflow 1 time(s) in pole/zero analysis
 **warning** underflow 1 time(s) in pole/zero analysis
 **warning** underflow 1 time(s) in pole/zero analysis
 **warning** underflow 1 time(s) in pole/zero analysis
 **warning** underflow 1 time(s) in pole/zero analysis
 **warning** underflow 1 time(s) in pole/zero analysis
 **warning** underflow 1 time(s) in pole/zero analysis
 **warning** underflow 1 time(s) in pole/zero analysis
 **warning** underflow 1 time(s) in pole/zero analysis
 **warning** underflow 1 time(s) in pole/zero analysis
 **warning** underflow 1 time(s) in pole/zero analysis
 **warning** underflow 1 time(s) in pole/zero analysis
 **warning** underflow 1 time(s) in pole/zero analysis
 **warning** underflow 1 time(s) in pole/zero analysis
 **warning** underflow 1 time(s) in pole/zero analysis
 **warning** underflow 1 time(s) in pole/zero analysis
 **warning** underflow 1 time(s) in pole/zero analysis
 **warning** underflow 1 time(s) in pole/zero analysis
 **warning** underflow 1 time(s) in pole/zero analysis
 **warning** underflow 1 time(s) in pole/zero analysis
 **warning** underflow 1 time(s) in pole/zero analysis
 **warning** underflow 1 time(s) in pole/zero analysis
 **warning** underflow 1 time(s) in pole/zero analysis
 **warning** underflow 1 time(s) in pole/zero analysis
 **warning** underflow 1 time(s) in pole/zero analysis
 **warning** underflow 1 time(s) in pole/zero analysis
 **warning** underflow 1 time(s) in pole/zero analysis
 **warning** underflow 1 time(s) in pole/zero analysis
 **warning** underflow 1 time(s) in pole/zero analysis
 **warning** underflow 1 time(s) in pole/zero analysis
 **warning** underflow 1 time(s) in pole/zero analysis
 **warning** underflow 1 time(s) in pole/zero analysis
 **warning** underflow 1 time(s) in pole/zero analysis
 **warning** underflow 1 time(s) in pole/zero analysis
 **warning** underflow 1 time(s) in pole/zero analysis
 **warning** underflow 1 time(s) in pole/zero analysis
 **warning** underflow 1 time(s) in pole/zero analysis
 **warning** underflow 1 time(s) in pole/zero analysis
 **warning** underflow 1 time(s) in pole/zero analysis
 **warning** underflow 1 time(s) in pole/zero analysis
 **warning** underflow 1 time(s) in pole/zero analysis
 **warning** underflow 1 time(s) in pole/zero analysis
 **warning** underflow 1 time(s) in pole/zero analysis
 **warning** underflow 1 time(s) in pole/zero analysis
 **warning** underflow 1 time(s) in pole/zero analysis
 **warning** underflow 1 time(s) in pole/zero analysis
 **warning** underflow 1 time(s) in pole/zero analysis
 **warning** underflow 1 time(s) in pole/zero analysis
 **warning** underflow 1 time(s) in pole/zero analysis
 **warning** underflow 1 time(s) in pole/zero analysis
 **warning** underflow 1 time(s) in pole/zero analysis
 **warning** underflow 1 time(s) in pole/zero analysis
 **warning** underflow 1 time(s) in pole/zero analysis
 **warning** underflow 1 time(s) in pole/zero analysis
 **warning** underflow 1 time(s) in pole/zero analysis
 **warning** underflow 1 time(s) in pole/zero analysis
 **warning** underflow 1 time(s) in pole/zero analysis
 **warning** underflow 1 time(s) in pole/zero analysis
 **warning** underflow 1 time(s) in pole/zero analysis
 **warning** underflow 1 time(s) in pole/zero analysis
 **warning** underflow 1 time(s) in pole/zero analysis
 **warning** underflow 1 time(s) in pole/zero analysis
 **warning** underflow 1 time(s) in pole/zero analysis
 **warning** underflow 1 time(s) in pole/zero analysis
 **warning** underflow 1 time(s) in pole/zero analysis
 **warning** underflow 1 time(s) in pole/zero analysis
 **warning** underflow 1 time(s) in pole/zero analysis
 **warning** underflow 1 time(s) in pole/zero analysis
 **warning** underflow 1 time(s) in pole/zero analysis
 **warning** underflow 1 time(s) in pole/zero analysis
 **warning** underflow 1 time(s) in pole/zero analysis
 **warning** underflow 1 time(s) in pole/zero analysis
 **warning** underflow 1 time(s) in pole/zero analysis
 **warning** underflow 1 time(s) in pole/zero analysis
 **warning** underflow 1 time(s) in pole/zero analysis
 **warning** underflow 1 time(s) in pole/zero analysis
 **warning** underflow 1 time(s) in pole/zero analysis
 **warning** underflow 1 time(s) in pole/zero analysis
 **warning** underflow 1 time(s) in pole/zero analysis
 **warning** underflow 1 time(s) in pole/zero analysis
 **warning** underflow 1 time(s) in pole/zero analysis
 **warning** underflow 1 time(s) in pole/zero analysis
 **warning** underflow 1 time(s) in pole/zero analysis
 **warning** underflow 1 time(s) in pole/zero analysis
 **warning** underflow 1 time(s) in pole/zero analysis
 **warning** underflow 1 time(s) in pole/zero analysis
 **warning** underflow 1 time(s) in pole/zero analysis
 **warning** underflow 1 time(s) in pole/zero analysis
 **warning** underflow 1 time(s) in pole/zero analysis
 **warning** underflow 1 time(s) in pole/zero analysis
 **warning** underflow 1 time(s) in pole/zero analysis
 **warning** underflow 1 time(s) in pole/zero analysis
 **warning** underflow 1 time(s) in pole/zero analysis
 **warning** underflow 1 time(s) in pole/zero analysis
 **warning** underflow 1 time(s) in pole/zero analysis
 **warning** underflow 1 time(s) in pole/zero analysis
 **warning** underflow 1 time(s) in pole/zero analysis
 **warning** underflow 1 time(s) in pole/zero analysis
 **warning** underflow 1 time(s) in pole/zero analysis
 **warning** underflow 1 time(s) in pole/zero analysis
 **warning** underflow 1 time(s) in pole/zero analysis
 **warning** underflow 1 time(s) in pole/zero analysis
 **warning** underflow 1 time(s) in pole/zero analysis
 **warning** underflow 1 time(s) in pole/zero analysis
 **warning** underflow 1 time(s) in pole/zero analysis
 **warning** underflow 1 time(s) in pole/zero analysis
 **warning** underflow 1 time(s) in pole/zero analysis
 **warning** underflow 1 time(s) in pole/zero analysis
 **warning** underflow 1 time(s) in pole/zero analysis
 **warning** underflow 1 time(s) in pole/zero analysis
 **warning** underflow 1 time(s) in pole/zero analysis
 **warning** underflow 1 time(s) in pole/zero analysis
 **warning** underflow 1 time(s) in pole/zero analysis
 **warning** underflow 1 time(s) in pole/zero analysis
 **warning** underflow 1 time(s) in pole/zero analysis
 **warning** underflow 1 time(s) in pole/zero analysis
 **warning** underflow 1 time(s) in pole/zero analysis
 **warning** underflow 1 time(s) in pole/zero analysis
 **warning** underflow 1 time(s) in pole/zero analysis
 **warning** underflow 1 time(s) in pole/zero analysis
 **warning** underflow 1 time(s) in pole/zero analysis
 **warning** underflow 1 time(s) in pole/zero analysis
 **warning** underflow 1 time(s) in pole/zero analysis
 **warning** underflow 1 time(s) in pole/zero analysis
 **warning** underflow 1 time(s) in pole/zero analysis
 **warning** underflow 1 time(s) in pole/zero analysis
 **warning** underflow 1 time(s) in pole/zero analysis
 **warning** underflow 1 time(s) in pole/zero analysis
 **warning** underflow 1 time(s) in pole/zero analysis
 **warning** underflow 1 time(s) in pole/zero analysis
 **warning** underflow 1 time(s) in pole/zero analysis
 **warning** underflow 1 time(s) in pole/zero analysis
 **warning** underflow 1 time(s) in pole/zero analysis
 **warning** underflow 1 time(s) in pole/zero analysis
 **warning** underflow 1 time(s) in pole/zero analysis
 **warning** underflow 1 time(s) in pole/zero analysis
 **warning** underflow 1 time(s) in pole/zero analysis
 **warning** underflow 1 time(s) in pole/zero analysis
 **warning** underflow 1 time(s) in pole/zero analysis
 **warning** underflow 1 time(s) in pole/zero analysis
 **warning** underflow 1 time(s) in pole/zero analysis
 **warning** underflow 1 time(s) in pole/zero analysis
 **warning** underflow 1 time(s) in pole/zero analysis
 **warning** underflow 1 time(s) in pole/zero analysis
 **warning** underflow 1 time(s) in pole/zero analysis
 **warning** underflow 1 time(s) in pole/zero analysis
 **warning** underflow 1 time(s) in pole/zero analysis
 **warning** underflow 1 time(s) in pole/zero analysis
 **warning** underflow 1 time(s) in pole/zero analysis
 **warning** underflow 1 time(s) in pole/zero analysis
 **warning** underflow 1 time(s) in pole/zero analysis
 **warning** underflow 1 time(s) in pole/zero analysis
 **warning** underflow 1 time(s) in pole/zero analysis
 **warning** underflow 1 time(s) in pole/zero analysis
 **warning** underflow 1 time(s) in pole/zero analysis
 **warning** underflow 1 time(s) in pole/zero analysis
 **warning** underflow 1 time(s) in pole/zero analysis
 **warning** underflow 1 time(s) in pole/zero analysis
 **warning** underflow 1 time(s) in pole/zero analysis
 **warning** underflow 1 time(s) in pole/zero analysis
 **warning** underflow 1 time(s) in pole/zero analysis
 **warning** underflow 1 time(s) in pole/zero analysis
 **warning** underflow 1 time(s) in pole/zero analysis
 **warning** underflow 1 time(s) in pole/zero analysis
 **warning** underflow 1 time(s) in pole/zero analysis
 **warning** underflow 1 time(s) in pole/zero analysis
 **warning** underflow 1 time(s) in pole/zero analysis
 **warning** underflow 1 time(s) in pole/zero analysis
 **warning** underflow 1 time(s) in pole/zero analysis
 **warning** underflow 1 time(s) in pole/zero analysis
 **warning** underflow 1 time(s) in pole/zero analysis
 **warning** underflow 1 time(s) in pole/zero analysis
 **warning** underflow 1 time(s) in pole/zero analysis
 **warning** underflow 1 time(s) in pole/zero analysis
 **warning** underflow 1 time(s) in pole/zero analysis
 **warning** underflow 1 time(s) in pole/zero analysis
 **warning** underflow 1 time(s) in pole/zero analysis
 **warning** underflow 1 time(s) in pole/zero analysis
 **warning** underflow 1 time(s) in pole/zero analysis
 **warning** underflow 1 time(s) in pole/zero analysis
 **warning** underflow 1 time(s) in pole/zero analysis
 **warning** underflow 1 time(s) in pole/zero analysis
 **warning** underflow 1 time(s) in pole/zero analysis
 **warning** underflow 1 time(s) in pole/zero analysis
 **warning** underflow 1 time(s) in pole/zero analysis
 **warning** underflow 1 time(s) in pole/zero analysis
 **warning** underflow 1 time(s) in pole/zero analysis
 **warning** underflow 1 time(s) in pole/zero analysis
 **warning** underflow 1 time(s) in pole/zero analysis
 **warning** underflow 1 time(s) in pole/zero analysis
 **warning** underflow 1 time(s) in pole/zero analysis
 **warning** underflow 1 time(s) in pole/zero analysis
 **warning** underflow 1 time(s) in pole/zero analysis
 **warning** underflow 1 time(s) in pole/zero analysis
 **warning** underflow 1 time(s) in pole/zero analysis
 **warning** underflow 1 time(s) in pole/zero analysis
 **warning** underflow 1 time(s) in pole/zero analysis
 **warning** underflow 1 time(s) in pole/zero analysis
 **warning** underflow 1 time(s) in pole/zero analysis
 **warning** underflow 1 time(s) in pole/zero analysis
 **warning** underflow 1 time(s) in pole/zero analysis
 **warning** underflow 1 time(s) in pole/zero analysis
 **warning** underflow 1 time(s) in pole/zero analysis
 **warning** underflow 1 time(s) in pole/zero analysis
 **warning** underflow 1 time(s) in pole/zero analysis
 **warning** underflow 1 time(s) in pole/zero analysis
 **warning** underflow 1 time(s) in pole/zero analysis
 **warning** underflow 1 time(s) in pole/zero analysis
 **warning** underflow 1 time(s) in pole/zero analysis
 **warning** underflow 1 time(s) in pole/zero analysis
 **warning** underflow 1 time(s) in pole/zero analysis
 **warning** underflow 1 time(s) in pole/zero analysis
 **warning** underflow 1 time(s) in pole/zero analysis
 **warning** underflow 1 time(s) in pole/zero analysis
 **warning** underflow 1 time(s) in pole/zero analysis
 **warning** underflow 1 time(s) in pole/zero analysis
 **warning** underflow 1 time(s) in pole/zero analysis
 **warning** underflow 1 time(s) in pole/zero analysis
 **warning** underflow 1 time(s) in pole/zero analysis
 **warning** underflow 1 time(s) in pole/zero analysis
 **warning** underflow 1 time(s) in pole/zero analysis
 **warning** underflow 1 time(s) in pole/zero analysis
 **warning** underflow 1 time(s) in pole/zero analysis
 **warning** underflow 1 time(s) in pole/zero analysis
 **warning** underflow 1 time(s) in pole/zero analysis
 **warning** underflow 1 time(s) in pole/zero analysis
 **warning** underflow 1 time(s) in pole/zero analysis
 **warning** underflow 1 time(s) in pole/zero analysis
 **warning** underflow 1 time(s) in pole/zero analysis
 **warning** underflow 1 time(s) in pole/zero analysis
 **warning** underflow 1 time(s) in pole/zero analysis
 **warning** underflow 1 time(s) in pole/zero analysis
 **warning** underflow 1 time(s) in pole/zero analysis
 **warning** underflow 1 time(s) in pole/zero analysis
 **warning** underflow 1 time(s) in pole/zero analysis
 **warning** underflow 1 time(s) in pole/zero analysis
 **warning** underflow 1 time(s) in pole/zero analysis
 **warning** underflow 1 time(s) in pole/zero analysis
 **warning** underflow 1 time(s) in pole/zero analysis
 **warning** underflow 1 time(s) in pole/zero analysis
 **warning** underflow 1 time(s) in pole/zero analysis
 **warning** underflow 1 time(s) in pole/zero analysis
 **warning** underflow 1 time(s) in pole/zero analysis
 **warning** underflow 1 time(s) in pole/zero analysis
 **warning** underflow 1 time(s) in pole/zero analysis
 **warning** underflow 1 time(s) in pole/zero analysis
 **warning** underflow 1 time(s) in pole/zero analysis
 **warning** underflow 1 time(s) in pole/zero analysis
 **warning** underflow 1 time(s) in pole/zero analysis
 **warning** underflow 1 time(s) in pole/zero analysis
 **warning** underflow 1 time(s) in pole/zero analysis
 **warning** underflow 1 time(s) in pole/zero analysis
 **warning** underflow 1 time(s) in pole/zero analysis
 **warning** underflow 1 time(s) in pole/zero analysis
 **warning** underflow 1 time(s) in pole/zero analysis
 **warning** underflow 1 time(s) in pole/zero analysis
 **warning** underflow 1 time(s) in pole/zero analysis
 **warning** underflow 1 time(s) in pole/zero analysis
 **warning** underflow 1 time(s) in pole/zero analysis
 **warning** underflow 1 time(s) in pole/zero analysis
 **warning** underflow 1 time(s) in pole/zero analysis
 **warning** underflow 1 time(s) in pole/zero analysis
 **warning** underflow 1 time(s) in pole/zero analysis
 **warning** underflow 1 time(s) in pole/zero analysis
 **warning** underflow 1 time(s) in pole/zero analysis
 **warning** underflow 1 time(s) in pole/zero analysis
 **warning** underflow 1 time(s) in pole/zero analysis
 **warning** underflow 1 time(s) in pole/zero analysis
 **warning** underflow 1 time(s) in pole/zero analysis
 **warning** underflow 1 time(s) in pole/zero analysis
 **warning** underflow 1 time(s) in pole/zero analysis
 **warning** underflow 1 time(s) in pole/zero analysis
 **warning** underflow 1 time(s) in pole/zero analysis
 **warning** underflow 1 time(s) in pole/zero analysis
 **warning** underflow 1 time(s) in pole/zero analysis
 **warning** underflow 1 time(s) in pole/zero analysis
 **warning** underflow 1 time(s) in pole/zero analysis
 **warning** underflow 1 time(s) in pole/zero analysis
 **warning** underflow 1 time(s) in pole/zero analysis
 **warning** underflow 1 time(s) in pole/zero analysis
 **warning** underflow 1 time(s) in pole/zero analysis
 **warning** underflow 1 time(s) in pole/zero analysis
 **warning** underflow 1 time(s) in pole/zero analysis
 **warning** underflow 1 time(s) in pole/zero analysis
 **warning** underflow 1 time(s) in pole/zero analysis
 **warning** underflow 1 time(s) in pole/zero analysis
 **warning** underflow 1 time(s) in pole/zero analysis
 **warning** underflow 1 time(s) in pole/zero analysis
 **warning** underflow 1 time(s) in pole/zero analysis
 **warning** underflow 1 time(s) in pole/zero analysis
 **warning** underflow 1 time(s) in pole/zero analysis
 **warning** underflow 1 time(s) in pole/zero analysis
 **warning** underflow 1 time(s) in pole/zero analysis
 **warning** underflow 1 time(s) in pole/zero analysis
 **warning** underflow 1 time(s) in pole/zero analysis
 **warning** underflow 1 time(s) in pole/zero analysis
 **warning** underflow 1 time(s) in pole/zero analysis
 **warning** underflow 1 time(s) in pole/zero analysis
 **warning** underflow 1 time(s) in pole/zero analysis
 **warning** underflow 1 time(s) in pole/zero analysis
 **warning** underflow 1 time(s) in pole/zero analysis
 **warning** underflow 1 time(s) in pole/zero analysis
 **warning** underflow 1 time(s) in pole/zero analysis
 **warning** underflow 1 time(s) in pole/zero analysis
 **warning** underflow 1 time(s) in pole/zero analysis
 **warning** underflow 1 time(s) in pole/zero analysis
 **warning** underflow 1 time(s) in pole/zero analysis
 **warning** underflow 1 time(s) in pole/zero analysis
 **warning** underflow 1 time(s) in pole/zero analysis
 **warning** underflow 1 time(s) in pole/zero analysis
 **warning** underflow 1 time(s) in pole/zero analysis
 **warning** underflow 1 time(s) in pole/zero analysis
 **warning** underflow 1 time(s) in pole/zero analysis
 **warning** underflow 1 time(s) in pole/zero analysis
 **warning** underflow 1 time(s) in pole/zero analysis
 **warning** underflow 1 time(s) in pole/zero analysis
 **warning** underflow 1 time(s) in pole/zero analysis
 **warning** underflow 1 time(s) in pole/zero analysis
 **warning** underflow 1 time(s) in pole/zero analysis
 
 
    input =  0:vfc          output = v(ti_out)
 
       poles (rad/sec)                 poles ( hertz)
 real            imag            real            imag            
 438.383k        6.26231x        69.7709k        996.678k        
 438.383k        -6.26231x       69.7709k        -996.678k       
 -13.4604x       0.              -2.14228x       0.              
 -14.4439x       0.              -2.29882x       0.              
 -49.8171x       -32.3131x       -7.92864x       -5.14279x       
 -49.8171x       32.3131x        -7.92864x       5.14279x        
 -71.3906x       0.              -11.3622x       0.              
 -107.867x       -9.72611x       -17.1676x       -1.54796x       
 -107.867x       9.72611x        -17.1676x       1.54796x        
 -115.841x       10.2737x        -18.4366x       1.63511x        
 -115.841x       -10.2737x       -18.4366x       -1.63511x       
 -157.390x       0.              -25.0494x       0.              
 -177.536x       0.              -28.2558x       0.              
 -205.080x       0.              -32.6395x       0.              
 -273.482x       -7.23311x       -43.5260x       -1.15118x       
 -273.482x       7.23311x        -43.5260x       1.15118x        
 -353.905x       -157.405x       -56.3258x       -25.0517x       
 -353.905x       157.405x        -56.3258x       25.0517x        
 -537.941x       0.              -85.6160x       0.              
 -667.037x       0.              -106.162x       0.              
 -723.411x       0.              -115.134x       0.              
 -857.071x       2.84967x        -136.407x       453.539k        
 -857.071x       -2.84967x       -136.407x       -453.539k       
 -859.621x       0.              -136.813x       0.              
 -860.652x       0.              -136.977x       0.              
 -1.41057g       0.              -224.499x       0.              
 -1.73266g       0.              -275.761x       0.              
 -2.54925g       0.              -405.726x       0.              
 
       zeros (rad/sec)                 zeros ( hertz)
 real            imag            real            imag            
 -607.967k       0.              -96.7610k       0.              
 -13.0534x       0.              -2.07751x       0.              
 -16.2251x       0.              -2.58230x       0.              
 26.4758x        0.              4.21375x        0.              
 -39.7484x       0.              -6.32616x       0.              
 -70.4491x       0.              -11.2123x       0.              
 -94.1532x       0.              -14.9849x       0.              
 -116.570x       0.              -18.5526x       0.              
 -118.629x       -18.9389x       -18.8804x       -3.01422x       
 -118.629x       18.9389x        -18.8804x       3.01422x        
 -138.403x       0.              -22.0275x       0.              
 -156.853x       0.              -24.9639x       0.              
 -178.273x       0.              -28.3731x       0.              
 -216.650x       0.              -34.4809x       0.              
 -270.904x       0.              -43.1157x       0.              
 -317.357x       20.0319x        -50.5089x       3.18817x        
 -317.357x       -20.0319x       -50.5089x       -3.18817x       
 -538.301x       0.              -85.6732x       0.              
 -669.999x       0.              -106.634x       0.              
 -677.905x       0.              -107.892x       0.              
 -858.690x       0.              -136.665x       0.              
 -859.137x       0.              -136.736x       0.              
 -860.511x       0.              -136.955x       0.              
 -861.105x       0.              -137.049x       0.              
 18.7065g        0.              2.97723g        0.              
 -20.4877g       0.              -3.26073g       0.              
 
  ***** constant factor = 9.22525t

          ***** job concluded
1****** HSPICE -- B-2008.09-SP1 32-BIT (Nov 24 2008) linux ******               
 ******  
  *all

  ******  job statistics summary tnom=  25.000 temp=  25.000 *****

  ******  HSPICE Threads Information  ******
  Command Line Threads Count:                      0
  Available CPU Count:                             8
  Actual Model Evaluation(Load) Threads Count:     1
  Actual Solver Threads Count:                     1


  ******  Circuit Statistics  ******
  # nodes       =     143  # elements   =      74
  # resistors   =       1  # capacitors =       3  # inductors   =       0
  # mutual_inds =       0  # vccs       =       0  # vcvs        =       0
  # cccs        =       0  # ccvs       =       0  # volt_srcs   =      19
  # curr_srcs   =       4  # diodes     =       0  # bjts        =       0
  # jfets       =       0  # mosfets    =      47  # U elements  =       0
  # T elements  =       0  # W elements =       0  # B elements  =       0
  # S elements  =       0  # P elements =       0  # va device   =       0


  ******  Runtime Statistics (seconds)  ******

  analysis           time    # points   tot. iter  conv.iter
  op point           0.16           1         655
  dc sweep           0.85        1479        3102
  ac analysis        0.41        9001        9001
  readin             0.01
  errchk             0.01
  setup              0.00
  output             0.00


           total memory used         1016  kbytes
           total cpu time            1.44 seconds
           total elapsed time        1.56 seconds
           job started at     14:08:04 02/15/2016
           job ended   at     14:08:06 02/15/2016


1****** HSPICE -- B-2008.09-SP1 32-BIT (Nov 24 2008) linux ******               
 ******  
  * on vnw

  ******    alter processing listing tnom=  25.000 temp=  25.000 *****
 .del lib 'test.l' all
 .lib 'test.l' vnw
     .dc vfc 0.2 1 0.01
     .ac dec 1000 1 1g
     *.pz v(to_out) vfc
     *cc nwd gnd 10p
     vfc vnw gnd dc = 0.5 ac = 1       * this value should be traced by .alter1
     .probe ac vp(to_out)
 .endl

 .alter * on tri_in
 $ alter processing continues $


 **warning**  the accurate option increases  the cpu time but the results
                are more accurate.
 ***accurate option sets default value of the options: 
 lvltim= 4         dvdt= 3       relvar= 200.00m absvar= 200.00m
     ft= 200.00m relmos=  10.00m
 (used for FFT control ) fft_accurate= 1

 **warning** Source for Pole/Zero analysis  cannot be found, analysis omitted

1****** HSPICE -- B-2008.09-SP1 32-BIT (Nov 24 2008) linux ******               
 ******  
  * on vnw

  ******  circuit name directory
 circuit number to circuit name directory
   number circuitname                     definition         multiplier
        0 main circuit
        1 xtri.                           tr                 1.00 
        2 xgm.                            gm                 1.00 
        3 xtro.                           gm                 1.00 
        4 xien.                           ien                1.00 
        5 xgm.x1.                         gmx                1.00 
        6 xgm.x2.                         gmx                1.00 
        7 xtro.x1.                        gmx                1.00 
        8 xtro.x2.                        gmx                1.00 
 
      
  Opening plot unit= 15
 file=new_loopTest.pa2                                                         

  *** gshunt ramping started *** 
  *** gshunt ramping succeeded *** 
1****** HSPICE -- B-2008.09-SP1 32-BIT (Nov 24 2008) linux ******               
 ******  
  * on vnw

  ******  operating point information tnom=  25.000 temp=  25.000 *****
 ***** operating point status is all       simulation time is     0.     
    node    =voltage      node    =voltage      node    =voltage

 +0:c0      = 1.225e+00 0:cn      = 4.499e-01 0:cp      = 2.700e+00
 +0:cz      = 2.394e+00 0:eb      = 2.500e+00 0:gm_in   = 2.065e+00
 +0:gm_out  = 2.054e+00 0:ien_in  = 2.000e+00 0:ien_out = 1.999e+00
 +0:nwd     = 1.076e+00 0:opb     = 2.000e+00 0:out     = 2.000e+00
 +0:ti_in   = 1.999e+00 0:ti_out  = 2.065e+00 0:to_in   = 2.054e+00
 +0:to_out  = 2.345e+00 0:vdd     = 3.300e+00 0:vgn     = 1.800e+00
 +0:vnw     = 5.000e-01 0:vss     =   0.      1:1       = 5.967e-01
 +1:2       = 5.776e-01 1:b       = 2.833e+00 2:bd      = 2.725e+00
 +2:ggn     = 6.676e-01 2:ggp     = 6.680e-01 2:idn     = 6.676e-01
 +2:idp     = 6.680e-01 2:io1     = 1.980e+00 2:sdn     = 1.699e+00
 +2:sdp     = 1.699e+00 3:bd      = 2.720e+00 3:ggn     = 6.667e-01
 +3:ggp     = 6.691e-01 3:idn     = 6.667e-01 3:idp     = 6.691e-01
 +3:io1     = 1.975e+00 3:sdn     = 1.696e+00 3:sdp     = 1.692e+00
 +4:b       = 2.908e+00 4:von     = 6.710e-01 4:vop     = 6.851e-01


 maximum nodal capacitance=   1.003E-11         on node     0:gm_out          

    nodal  capacitance table 

    node    =    cap      node    =    cap      node    =    cap

 +0:c0      = 1.793e-14 0:cn      = 7.945e-14 0:cp      = 8.232e-14
 +0:cz      = 3.918e-13 0:eb      = 1.367e-13 0:gm_in   = 1.317e-14
 +0:gm_out  = 1.003e-11 0:ien_in  = 1.110e-12 0:ien_out = 1.432e-13
 +0:nwd     = 1.911e-14 0:opb     = 1.946e-13 0:out     = 1.090e-14
 +0:ti_in   = 8.526e-14 0:ti_out  = 1.056e-12 0:to_in   = 1.320e-14
 +0:to_out  = 1.267e-14 0:vdd     = 2.057e-12 0:vgn     = 7.001e-15
 +0:vnw     = 4.908e-15 0:vss     = 1.625e-12 1:1       = 9.656e-14
 +1:2       = 1.069e-12 1:b       = 2.955e-13 2:bd      = 6.571e-14
 +2:ggn     = 1.011e-13 2:ggp     = 1.012e-13 2:idn     = 3.055e-14
 +2:idp     = 3.056e-14 2:io1     = 1.717e-13 2:sdn     = 4.238e-14
 +2:sdp     = 4.241e-14 3:bd      = 6.570e-14 3:ggn     = 1.010e-13
 +3:ggp     = 1.013e-13 3:idn     = 3.055e-14 3:idp     = 3.062e-14
 +3:io1     = 1.717e-13 3:sdn     = 4.239e-14 3:sdp     = 4.257e-14
 +4:b       = 3.402e-13 4:von     = 1.118e-13 4:vop     = 1.046e-12

 

 ****  voltage sources

 subckt                                                                    
 element  0:veb      0:vng      0:vc1      0:vc2      0:vc3      0:vc4     
  volts    2.500e+00  1.800e+00    0.         0.         0.         0.     
  current    0.         0.       3.276e-07 -3.268e-06  1.763e-12  1.747e-12
  power      0.         0.         0.         0.         0.         0.     

 subckt                                               xgm        xgm       
 element  0:vfc      0:vopbias  0:vd       0:vs       2:v0       2:v1      
  volts    5.000e-01  2.000e+00  3.300e+00    0.         0.         0.     
[...]
 ***** operating point status is all       simulation time is     0.     
    node    =voltage      node    =voltage      node    =voltage

 +0:c0      = 1.225e+00 0:cn      = 4.499e-01 0:cp      = 2.700e+00
 +0:cz      = 2.394e+00 0:eb      = 2.500e+00 0:gm_in   = 2.045e+00
 +0:gm_out  = 2.037e+00 0:ien_in  = 2.000e+00 0:ien_out = 1.999e+00
 +0:in      = 2.000e+00 0:nwd     = 9.066e-01 0:opb     = 2.000e+00
 +0:out     = 1.999e+00 0:ro      = 2.000e+00 0:ti_in   = 1.999e+00
 +0:ti_out  = 2.045e+00 0:to_in   = 2.037e+00 0:to_out  = 2.239e+00
 +0:vdd     = 3.300e+00 0:vgn     = 1.800e+00 0:vnw     = 7.395e-01
 +0:vss     =   0.      1:1       = 5.967e-01 1:2       = 5.817e-01
 +1:b       = 2.833e+00 2:bd      = 2.722e+00 2:ggn     = 6.677e-01
 +2:ggp     = 6.680e-01 2:idn     = 6.677e-01 2:idp     = 6.680e-01
 +2:io1     = 1.980e+00 2:sdn     = 1.696e+00 2:sdp     = 1.696e+00
 +3:bd      = 2.718e+00 3:ggn     = 6.671e-01 3:ggp     = 6.687e-01
 +3:idn     = 6.671e-01 3:idp     = 6.687e-01 3:io1     = 1.977e+00
 +3:sdn     = 1.694e+00 3:sdp     = 1.691e+00 4:b       = 2.908e+00
 +4:von     = 6.710e-01 4:vop     = 6.844e-01


 maximum nodal capacitance=   1.003E-11         on node     0:gm_out          

    nodal  capacitance table 

    node    =    cap      node    =    cap      node    =    cap

 +0:c0      = 1.793e-14 0:cn      = 7.945e-14 0:cp      = 8.232e-14
 +0:cz      = 3.918e-13 0:eb      = 1.367e-13 0:gm_in   = 1.324e-14
 +0:gm_out  = 1.003e-11 0:ien_in  = 1.110e-12 0:ien_out = 1.432e-13
 +0:in      =   0.      0:nwd     = 3.074e-14 0:opb     = 1.946e-13
 +0:out     = 1.090e-14 0:ro      =   0.      0:ti_in   = 8.526e-14
 +0:ti_out  = 1.056e-12 0:to_in   = 1.327e-14 0:to_out  = 1.256e-14
 +0:vdd     = 2.057e-12 0:vgn     = 1.457e-14 0:vnw     = 9.463e-15
 +0:vss     = 1.644e-12 1:1       = 9.656e-14 1:2       = 1.074e-12
 +1:b       = 2.955e-13 2:bd      = 6.570e-14 2:ggn     = 1.011e-13
 +2:ggp     = 1.012e-13 2:idn     = 3.057e-14 2:idp     = 3.058e-14
 +2:io1     = 1.717e-13 2:sdn     = 4.243e-14 2:sdp     = 4.246e-14
 +3:bd      = 6.570e-14 3:ggn     = 1.011e-13 3:ggp     = 1.013e-13
 +3:idn     = 3.057e-14 3:idp     = 3.062e-14 3:io1     = 1.717e-13
 +3:sdn     = 4.244e-14 3:sdp     = 4.257e-14 4:b       = 3.402e-13
 +4:von     = 1.118e-13 4:vop     = 1.046e-12

 

 ****  voltage sources

 subckt                                                                    
 element  0:veb      0:vng      0:vc1      0:vc2      0:vc3      0:vc4     
  volts    2.500e+00  1.800e+00    0.         0.         0.         0.     
  current    0.         0.       2.300e-07 -2.294e-06  1.727e-12  1.715e-12
  power      0.         0.         0.         0.         0.         0.     

 subckt                                               xgm        xgm       
 element  0:vfc      0:vopbias  0:vd       0:vs       2:v0       2:v1      
  volts    1.500e+00  2.000e+00  3.300e+00    0.         0.         0.     
  current    0.      -1.640e-12 -1.799e-04  2.286e-04    0.         0.     
  power      0.       3.280e-12  5.938e-04    0.         0.         0.     

 subckt   xtro       xtro      
 element  3:v0       3:v1      
  volts      0.         0.     
  current  1.388e-17    0.     
  power      0.         0.     

     total voltage source power dissipation=  5.938e-04       watts



 ***** current sources

 subckt                                   
 element  0:ic       0:ip       0:inw     
  volts    2.700e+00  1.301e+00  1.300e+00
  current  5.000e-07  1.000e-06  1.000e-07
  power   -1.350e-06 -1.301e-06 -1.300e-07


     total current source power dissipation=-2.781e-06       watts

 **** resistors

 subckt                         xtri      
 element  0:rin      0:ro       1:rl      
  r value  1.000e+07  2.000e+01  2.000e+04
  v drop  -1.300e+00 -9.744e-04  4.587e-02
  current -1.300e-07 -4.872e-05  2.294e-06
  power    1.690e-07  4.747e-08  1.052e-07


 **** voltage-controlled voltage sources


 subckt             
 element  0:eo      
  volts    2.000e+00
  current -4.872e-05





 **** mosfets


 subckt                                                                    
 element  0:mc0      0:mc1      0:mc2      0:mc3      0:mcx      0:mcz     
 model    0:pch.3    0:pch.3    0:pch.6    0:nch.3    0:pch.5    0:nch.2   
 region       Cutoff     Cutoff   Saturati     Cutoff   Saturati     Cutoff
  id      -5.000e-07 -3.747e-07 -3.747e-07  3.747e-07 -6.069e-07  6.063e-07
  ibs      1.004e-19  7.527e-20  8.207e-20 -5.981e-19  1.329e-19 -9.126e-19
  ibd      3.331e-15  2.494e-12  1.159e-16 -2.153e-14  1.160e-16 -5.585e-10
  vgs     -5.993e-01 -5.993e-01 -7.753e-01  4.499e-01 -9.058e-01  4.499e-01
  vds     -5.993e-01 -2.074e+00 -7.753e-01  4.499e-01 -9.058e-01  2.394e+00
  vbs        0.         0.         0.         0.         0.         0.     
  vth     -7.198e-01 -6.799e-01 -7.454e-01  5.699e-01 -7.778e-01  5.635e-01
  vdsat   -4.893e-02 -5.365e-02 -1.021e-01  4.412e-02 -1.747e-01  4.465e-02
  vod      1.205e-01  8.054e-02 -2.990e-02 -1.199e-01 -1.280e-01 -1.136e-01
  beta     4.335e-03  1.252e-03  1.063e-04  8.618e-03  4.825e-05  6.708e-03
  gam eff  4.553e-01  4.553e-01  4.082e-01  5.577e-01  3.889e-01  4.720e-01
  gm       1.151e-05  8.252e-06  5.574e-06  9.828e-06  6.523e-06  1.525e-05
  gds      3.541e-07  2.330e-07  1.632e-07  1.620e-07  6.154e-08  8.384e-08
  gmb      2.576e-06  1.809e-06  1.177e-06  2.825e-06  1.414e-06  4.592e-06
  cdtot    5.072e-14  1.084e-14  1.895e-15  2.054e-14  1.835e-15  3.189e-14
  cgtot    2.458e-14  7.023e-15  9.699e-16  1.269e-14  3.685e-15  4.335e-14
  cstot    6.271e-14  1.792e-14  2.700e-15  2.275e-14  5.690e-15  4.284e-14
  cbtot    1.121e-13  2.838e-14  4.394e-15  4.318e-14  5.204e-15  9.314e-14
  cgs      6.469e-15  1.848e-15  3.889e-16  3.200e-15  2.762e-15  6.232e-15
  cgd      6.469e-15  1.848e-15  1.922e-16  3.200e-15  1.922e-16  6.232e-15



 subckt                         xtri       xtri       xtri       xtri      
 element  0:mc       0:mnw      1:mb       1:m1       1:m2       1:m3      
 model    0:nch.3    0:nch.3    0:pch.1    0:pch.1    0:pch.1    0:nch.1   
 region     Saturati   Saturati   Saturati   Saturati   Saturati   Saturati
  id       4.972e-05  4.972e-05 -1.001e-06 -5.004e-07 -5.002e-07  5.004e-07
  ibs     -1.308e-14 -7.762e-17  2.009e-19  1.022e-19  1.021e-19 -8.614e-19
  ibd     -1.483e-13 -8.467e-15  4.759e-16  3.288e-13  3.517e-13 -4.644e-15
  vgs      8.934e-01  7.395e-01 -9.058e-01 -8.330e-01 -8.330e-01  5.967e-01
  vds      1.092e+00  9.066e-01 -4.670e-01 -2.236e+00 -2.251e+00  5.967e-01
  vbs     -9.066e-01    0.         0.         0.         0.         0.     
  vth      7.730e-01  5.670e-01 -7.520e-01 -7.564e-01 -7.564e-01  5.345e-01
  vdsat    1.371e-01  1.657e-01 -1.923e-01 -1.334e-01 -1.333e-01  1.076e-01
  vod      1.204e-01  1.725e-01 -1.538e-01 -7.657e-02 -7.654e-02  6.218e-02
  beta     5.599e-03  3.371e-03  6.424e-05  7.579e-05  7.579e-05  1.171e-04
  gam eff  5.727e-01  5.599e-01  4.097e-01  4.002e-01  4.002e-01  4.547e-01
  gm       6.481e-04  5.009e-04  9.660e-06  6.328e-06  6.327e-06  7.529e-06
  gds      1.151e-05  7.744e-06  4.190e-08  1.408e-08  1.406e-08  1.046e-08
  gmb      1.225e-04  1.344e-04  2.268e-06  1.501e-06  1.501e-06  2.238e-06
  cdtot    1.090e-14  7.445e-15  7.534e-15  6.749e-15  6.735e-15  4.161e-15
  cgtot    1.457e-14  9.463e-15  8.017e-14  8.526e-14  8.524e-14  4.283e-14
  cstot    2.329e-14  1.693e-14  9.611e-14  9.565e-14  9.562e-14  4.680e-14
  cbtot    2.206e-14  1.656e-14  4.098e-14  4.836e-14  4.835e-14  2.665e-14
  cgs      1.115e-14  7.240e-15  6.913e-14  6.717e-14  6.714e-14  3.217e-14
  cgd      2.077e-15  1.252e-15  9.242e-16  1.116e-15  1.116e-15  6.333e-16



 subckt   xtri       xtri       xtri       xgm        xgm        xgm       
 element  1:m4       1:ma1      1:ma2      2:mo3a     2:mo4a     2:mo1     
 model    0:nch.1    0:pch.2    0:nch.2    0:pch.1    0:pch.1    0:nch.2   
 region     Saturati   Saturati   Saturati   Saturati   Saturati   Saturati
  id       5.002e-07 -1.535e-05  1.305e-05 -9.289e-06 -9.281e-06  9.289e-06
  ibs     -8.611e-19  3.050e-18 -1.911e-17  1.864e-18  1.862e-18 -1.463e-17
  ibd     -4.644e-15  7.168e-15 -1.872e-09  4.587e-16  4.580e-16 -6.365e-10
  vgs      5.967e-01 -9.058e-01  5.817e-01 -1.319e+00 -1.319e+00  6.680e-01
  vds      5.817e-01 -1.254e+00  2.045e+00 -1.319e+00 -1.262e+00  1.980e+00
  vbs        0.         0.         0.         0.         0.         0.     
  vth      5.345e-01 -7.518e-01  5.660e-01 -7.510e-01 -7.511e-01  5.615e-01
  vdsat    1.076e-01 -1.982e-01  7.398e-02 -5.588e-01 -5.587e-01  1.279e-01
  vod      6.217e-02 -1.540e-01  1.573e-02 -5.689e-01 -5.688e-01  1.065e-01
  beta     1.171e-04  9.120e-04  7.798e-03  5.772e-05  5.772e-05  1.237e-03
  gam eff  4.547e-01  3.952e-01  4.732e-01  4.091e-01  4.091e-01  4.699e-01
  gm       7.527e-06  1.515e-04  2.564e-04  2.965e-05  2.962e-05  1.236e-04
  gds      1.055e-08  1.435e-06  1.294e-06  1.387e-07  1.450e-07  5.978e-07
  gmb      2.237e-06  3.302e-05  7.481e-05  6.924e-06  6.918e-06  3.576e-05
  cdtot    4.170e-15  1.919e-14  3.689e-14  5.911e-15  5.978e-15  6.437e-15
  cgtot    4.283e-14  5.210e-14  6.297e-14  7.969e-14  7.969e-14  1.911e-14
  cstot    4.680e-14  7.919e-14  7.431e-14  9.644e-14  9.644e-14  2.707e-14
  cbtot    2.666e-14  5.560e-14  1.060e-13  3.770e-14  3.777e-14  1.924e-14
  cgs      3.217e-14  4.371e-14  2.642e-14  7.019e-14  7.019e-14  1.516e-14
  cgd      6.333e-16  2.946e-15  7.167e-15  8.876e-16  8.876e-16  1.190e-15



 subckt   xgm        xgm        xtro       xtro       xtro       xtro      
 element  2:mo2      2:mb       3:mo3a     3:mo4a     3:mo1      3:mo2     
 model    0:nch.2    0:pch.2    0:pch.1    0:pch.1    0:nch.2    0:nch.2   
 region     Saturati   Saturati   Saturati   Saturati   Saturati   Saturati
  id       9.280e-06 -4.272e-06 -9.372e-06 -9.331e-06  9.372e-06  9.328e-06
  ibs     -1.462e-17  8.573e-19  1.881e-18  1.872e-18 -1.476e-17 -1.469e-17
  ibd     -9.194e-10  4.759e-16  4.587e-16  4.579e-16 -6.286e-10 -2.875e-09
  vgs      6.677e-01 -9.058e-01 -1.322e+00 -1.322e+00  6.687e-01  6.671e-01
  vds      2.037e+00 -5.776e-01 -1.322e+00 -1.060e+00  1.977e+00  2.239e+00
  vbs        0.         0.         0.         0.         0.         0.     
  vth      5.614e-01 -7.587e-01 -7.510e-01 -7.515e-01  5.615e-01  5.609e-01
  vdsat    1.277e-01 -1.921e-01 -5.613e-01 -5.609e-01  1.283e-01  1.276e-01
  vod      1.063e-01 -1.471e-01 -5.717e-01 -5.712e-01  1.072e-01  1.061e-01
  beta     1.237e-03  2.799e-04  5.770e-05  5.769e-05  1.237e-03  1.238e-03
  gam eff  4.699e-01  3.951e-01  4.091e-01  4.091e-01  4.699e-01  4.699e-01
  gm       1.236e-04  4.316e-05  2.976e-05  2.962e-05  1.243e-04  1.240e-04
  gds      6.009e-07  5.617e-07  1.397e-07  1.783e-07  6.012e-07  6.243e-07
  gmb      3.575e-05  9.398e-06  6.952e-06  6.920e-06  3.597e-05  3.588e-05
  cdtot    6.411e-15  7.291e-15  5.908e-15  6.232e-15  6.438e-15  6.327e-15
  cgtot    1.910e-14  1.647e-14  7.969e-14  7.969e-14  1.913e-14  1.908e-14
  cstot    2.705e-14  2.507e-14  9.644e-14  9.644e-14  2.711e-14  2.702e-14
  cbtot    1.921e-14  1.914e-14  3.770e-14  3.802e-14  1.924e-14  1.913e-14
  cgs      1.515e-14  1.367e-14  7.019e-14  7.019e-14  1.519e-14  1.512e-14
  cgd      1.190e-15  9.242e-16  8.876e-16  8.876e-16  1.190e-15  1.190e-15



 subckt   xtro       xien       xien       xien       xien       xien      
 element  3:mb       4:mb       4:m1       4:m2       4:m3       4:m4      
 model    0:pch.2    0:pch.1    0:pch.1    0:pch.1    0:nch.1    0:nch.1   
 region     Saturati   Saturati   Saturati   Saturati   Saturati   Saturati
  id      -4.274e-06 -2.631e-06 -1.315e-06 -1.315e-06  1.315e-06  1.315e-06
  ibs      8.577e-19  5.203e-19  2.630e-19  2.631e-19 -2.264e-18 -2.264e-18
  ibd      4.759e-16  1.106e-15  6.399e-13  6.000e-13 -4.644e-15 -4.644e-15
  vgs     -9.058e-01 -9.058e-01 -9.080e-01 -9.080e-01  6.710e-01  6.710e-01
  vds     -5.811e-01 -3.920e-01 -2.237e+00 -2.223e+00  6.710e-01  6.844e-01
  vbs        0.         0.         0.         0.         0.         0.     
  vth     -7.587e-01 -7.452e-01 -7.471e-01 -7.471e-01  5.345e-01  5.344e-01
  vdsat   -1.922e-01 -1.991e-01 -1.985e-01 -1.985e-01  1.590e-01  1.590e-01
  vod     -1.471e-01 -1.605e-01 -1.609e-01 -1.609e-01  1.366e-01  1.366e-01
  beta     2.799e-04  1.577e-04  7.762e-05  7.762e-05  1.166e-04  1.166e-04
  gam eff  3.951e-01  4.181e-01  4.121e-01  4.121e-01  4.547e-01  4.547e-01
  gm       4.317e-05  2.480e-05  1.239e-05  1.239e-05  1.455e-05  1.455e-05
  gds      5.602e-07  1.442e-07  2.595e-08  2.598e-08  2.055e-08  2.039e-08
  gmb      9.402e-06  5.866e-06  2.915e-06  2.916e-06  4.291e-06  4.291e-06
  cdtot    7.284e-15  1.752e-14  6.259e-15  6.271e-15  4.115e-15  4.108e-15
  cgtot    1.647e-14  1.892e-13  9.589e-14  9.589e-14  5.069e-14  5.069e-14
  cstot    2.507e-14  2.302e-13  1.155e-13  1.155e-13  6.017e-14  6.017e-14
  cbtot    1.913e-14  9.405e-14  4.586e-14  4.587e-14  2.725e-14  2.724e-14
  cgs      1.367e-14  1.659e-13  8.313e-14  8.314e-14  4.226e-14  4.226e-14
  cgd      9.242e-16  2.205e-15  1.107e-15  1.107e-15  6.333e-16  6.333e-16



 subckt   xien       xien       xien       xien       xgm.x1     xgm.x1    
 element  4:me1p     4:me2p     4:me1n     4:me2n     5:ms       5:min     
 model    0:pch.3    0:pch.3    0:nch.3    0:nch.3    0:pch.1    0:pch.1   
 region     Saturati   Saturati   Saturati   Saturati   Saturati   Saturati
  id      -1.022e-05 -1.022e-04  1.045e-05  1.045e-04 -2.140e-06 -2.140e-06
  ibs      2.024e-18  2.024e-17 -1.946e-17 -1.946e-16  4.450e-19  2.959e-16
  ibd      5.642e-14  5.650e-13 -2.098e-09 -2.096e-08  2.061e-16  2.969e-16
  vgs     -8.000e-01 -8.000e-01  6.844e-01  6.844e-01 -1.026e+00 -1.028e+00
  vds     -1.300e+00 -1.300e+00  2.000e+00  1.999e+00 -1.026e+00 -1.028e+00
  vbs        0.         0.         0.         0.         0.       3.414e-01
  vth     -6.959e-01 -6.959e-01  5.535e-01  5.535e-01 -7.668e-01 -8.285e-01
  vdsat   -1.370e-01 -1.370e-01  1.360e-01  1.360e-01 -2.830e-01 -2.364e-01
  vod     -1.041e-01 -1.041e-01  1.308e-01  1.308e-01 -2.593e-01 -1.998e-01
  beta     1.255e-03  1.255e-02  1.031e-03  1.031e-02  5.640e-05  8.674e-05
  gam eff  4.626e-01  4.626e-01  5.352e-01  5.352e-01  3.892e-01  3.974e-01
  gm       1.380e-04  1.380e-03  1.280e-04  1.280e-03  1.433e-05  1.772e-05
  gds      4.132e-06  4.132e-05  1.788e-06  1.788e-05  1.166e-07  1.208e-07
  gmb      2.912e-05  2.912e-04  3.372e-05  3.372e-04  3.171e-06  3.347e-06
  cdtot    1.174e-14  1.174e-13  2.576e-15  2.576e-14  2.968e-15  3.871e-15
  cgtot    1.243e-14  1.243e-13  3.202e-15  3.202e-14  1.406e-14  2.021e-14
  cstot    2.630e-14  2.630e-13  5.913e-15  5.913e-14  1.839e-14  2.543e-14
  cbtot    2.858e-14  2.858e-13  6.076e-15  6.076e-14  1.082e-14  1.328e-14
  cgs      8.952e-15  8.952e-14  2.334e-15  2.334e-14  1.172e-14  1.731e-14
  cgd      1.839e-15  1.839e-14  4.270e-16  4.270e-15  3.751e-16  5.582e-16



 subckt   xgm.x1     xgm.x2     xgm.x2     xgm.x2     xtro.x1    xtro.x1   
 element  5:mn       6:ms       6:min      6:mn       7:ms       7:min     
 model    0:nch.1    0:pch.1    0:pch.1    0:nch.1    0:pch.1    0:pch.1   
 region     Saturati   Saturati   Saturati   Saturati   Saturati   Saturati
  id       2.140e-06 -2.132e-06 -2.132e-06  2.132e-06 -2.157e-06 -2.157e-06
  ibs     -3.423e-18  4.433e-19  2.959e-16 -3.409e-18  4.485e-19  2.959e-16
  ibd     -7.055e-15  2.061e-16  2.970e-16 -7.055e-15  2.061e-16  2.968e-16
  vgs      6.680e-01 -1.025e+00 -1.029e+00  6.677e-01 -1.027e+00 -1.022e+00
  vds      6.680e-01 -1.025e+00 -1.029e+00  6.677e-01 -1.027e+00 -1.022e+00
  vbs        0.         0.       3.489e-01    0.         0.       3.083e-01
  vth      5.378e-01 -7.668e-01 -8.299e-01  5.378e-01 -7.668e-01 -8.223e-01
  vdsat    1.565e-01 -2.825e-01 -2.361e-01  1.563e-01 -2.840e-01 -2.369e-01
  vod      1.302e-01 -2.587e-01 -1.993e-01  1.299e-01 -2.605e-01 -2.006e-01
  beta     2.004e-04  5.640e-05  8.671e-05  2.004e-04  5.639e-05  8.690e-05
  gam eff  4.621e-01  3.892e-01  3.974e-01  4.621e-01  3.892e-01  3.974e-01
  gm       2.417e-05  1.430e-05  1.769e-05  2.411e-05  1.438e-05  1.779e-05
  gds      3.588e-08  1.163e-07  1.204e-07  3.579e-08  1.172e-07  1.218e-07
  gmb      7.214e-06  3.165e-06  3.330e-06  7.197e-06  3.184e-06  3.408e-06
  cdtot    6.495e-15  2.969e-15  3.865e-15  6.496e-15  2.967e-15  3.899e-15
  cgtot    8.207e-14  1.406e-14  2.021e-14  8.204e-14  1.406e-14  2.022e-14
  cstot    9.838e-14  1.839e-14  2.540e-14  9.833e-14  1.839e-14  2.554e-14
  cbtot    4.346e-14  1.082e-14  1.324e-14  4.346e-14  1.081e-14  1.343e-14
  cgs      6.908e-14  1.172e-14  1.731e-14  6.904e-14  1.172e-14  1.731e-14
  cgd      1.046e-15  3.751e-16  5.582e-16  1.046e-15  3.751e-16  5.582e-16



 subckt   xtro.x1    xtro.x2    xtro.x2    xtro.x2   
 element  7:mn       8:ms       8:min      8:mn      
 model    0:nch.1    0:pch.1    0:pch.1    0:nch.1   
 region     Saturati   Saturati   Saturati   Saturati
  id       2.157e-06 -2.117e-06 -2.117e-06  2.117e-06
  ibs     -3.449e-18  4.402e-19  2.959e-16 -3.386e-18
  ibd     -7.055e-15  2.061e-16  2.969e-16 -7.055e-15
  vgs      6.687e-01 -1.024e+00 -1.027e+00  6.671e-01
  vds      6.687e-01 -1.024e+00 -1.027e+00  6.671e-01
  vbs        0.         0.       3.433e-01    0.     
  vth      5.378e-01 -7.668e-01 -8.288e-01  5.378e-01
  vdsat    1.571e-01 -2.816e-01 -2.353e-01  1.558e-01
  vod      1.309e-01 -2.577e-01 -1.985e-01  1.293e-01
  beta     2.004e-04  5.641e-05  8.675e-05  2.004e-04
  gam eff  4.621e-01  3.892e-01  3.974e-01  4.621e-01
  gm       2.429e-05  1.425e-05  1.762e-05  2.401e-05
  gds      3.607e-08  1.157e-07  1.199e-07  3.562e-08
  gmb      7.249e-06  3.153e-06  3.325e-06  7.166e-06
  cdtot    6.495e-15  2.969e-15  3.870e-15  6.496e-15
  cgtot    8.213e-14  1.405e-14  2.020e-14  8.199e-14
  cstot    9.848e-14  1.839e-14  2.541e-14  9.824e-14
  cbtot    4.346e-14  1.082e-14  1.327e-14  4.346e-14
  cgs      6.916e-14  1.172e-14  1.731e-14  6.898e-14
  cgd      1.046e-15  3.751e-16  5.582e-16  1.046e-15




          ***** job concluded
1****** HSPICE -- B-2008.09-SP1 32-BIT (Nov 24 2008) linux ******               
 ******  
  * on out

  ******  job statistics summary tnom=  25.000 temp=  25.000 *****

  ******  HSPICE Threads Information  ******
  Command Line Threads Count:                      0
  Available CPU Count:                             8
  Actual Model Evaluation(Load) Threads Count:     1
  Actual Solver Threads Count:                     1


  ******  Circuit Statistics  ******
  # nodes       =     139  # elements   =      72
  # resistors   =       3  # capacitors =       3  # inductors   =       0
  # mutual_inds =       0  # vccs       =       0  # vcvs        =       1
  # cccs        =       0  # ccvs       =       0  # volt_srcs   =      16
  # curr_srcs   =       3  # diodes     =       0  # bjts        =       0
  # jfets       =       0  # mosfets    =      46  # U elements  =       0
  # T elements  =       0  # W elements =       0  # B elements  =       0
  # S elements  =       0  # P elements =       0  # va device   =       0


  ******  Runtime Statistics (seconds)  ******

  analysis           time    # points   tot. iter  conv.iter
  op point           0.05           1         373
  dc sweep           0.58        2001        4047
  ac analysis        0.40        9001        9001
  readin             0.02
  errchk             0.02
  setup              0.00
  output             0.00


           total memory used         1021  kbytes
           total cpu time            1.07 seconds
           total elapsed time        1.17 seconds
           job started at     14:08:04 02/15/2016
           job ended   at     14:08:10 02/15/2016


 Init: hspice initialization file: /usr/cad/synopsys/hspice/cur/hspice/hspice.ini
 lic: Release hspice token(s) 
