Using: /usr/bin/time -p /usr/cad/synopsys/hspice/cur/hspice/linux/hspice TrImp.sp
 ****** HSPICE -- B-2008.09-SP1 32-BIT (Nov 24 2008) linux ******               
  Copyright (C) 2008 Synopsys, Inc. All Rights Reserved.                        
  Unpublished-rights reserved under US copyright laws.
  This program is protected by law and is subject to the 
  terms and conditions of the license agreement from Synopsys.
  Use of this program is your acceptance to be bound by the 
  license agreement. HSPICE is the trademark of Synopsys, Inc.
  Input File: TrImp.sp                                                          
 lic:  
 lic: FLEXlm: v8.5b 
 lic: USER:   m103061608           HOSTNAME: ws43 
 lic: HOSTID: 5cf3fcb5e0d8         PID:      18173 
 lic: Using FLEXlm license file: 
 lic: 26585@lsnctu 
 lic: Checkout 1 hspice 
 lic: License/Maintenance for hspice will expire on 14-may-2016/2015.06 
 lic: FLOATING license(s) on SERVER lsnctu 
 lic:   
 Init: read install configuration file: /usr/cad/synopsys/hspice/cur/hspice/meta.cfg
 Init: hspice initialization file: /usr/cad/synopsys/hspice/cur/hspice/hspice.ini
 .option runlvl
 .option post acout=0 accurate=1 dcon=1 converge=1 gmindc=1.0000e-12 captab=1 unwrap=1
 + ingold=1

 ***param***
 .param
 +comon		= 1.7
 +bias		= 2.4
 +bias2		= 2.4
 +supplyp	= 3.3
 +supplyn	= 0
 +diff			= 0
 ***netlist***
 ***1st stage***
 mb	b	cz	 vdd vdd pch w = 5u  l = 5u  m = 1
 m1	1	vinp b	 b	 pch w = 3u   l = 5u  m = 2
 m2	2	vinn b	 b	 pch w = 3u   l = 5u  m = 2
 m3	1	1	 vss vss nch w = 3u   l = 5u  m = 1
 m4	2	1	 vss vss nch w = 3u l = 5u    m = 1


 ***2nd stage***
 ma1 vop cz vdd vdd pch w = 8.2u l = 1u m = 1
 ma2 vop 2  vss vss nch w = 3u l = 0.4u m = 1
 ***compensation***
 *c1  2 vop 20f   *~ 60db
 c1  2 vop 100f   *~60db for rl added
 ******

 ***current mirror***
 iic cp vss dc = 200n
 mc0 cp cp vdd vdd pch w = 16u l = 1u m = 2
 mc1 c0 cp vdd vdd pch w = 5u l = 0.4u m = 2
 mc2 cn cn c0  c0  pch w = 1u l = 0.4u m = 1
 mc3 cn cn vss vss nch w = 5.1u l = 0.4u m = 3
 mcx  cz cz vdd vdd pch w = 1u l = 1u m = 1
 mcz  cz cn vss vss nch w = 10u l = 1u m = 3

 ***source***
 vd		vdd 	gnd dc supplyp
 vs		vss 	gnd dc supplyn
 vb 		b0		gnd dc bias
 vb1		b1		gnd dc bias2





 ***test***
 mt	vgt	vgt	vss	vss	nch	w = 3u   l = 5u m = 1
 *mt	vdt	vgt	vst	vst	pch w = 2.8u l = 2u m = 1
 *mt	vdt	vgt	vst	vst	pch	w = 12u   l = 5u m = 1
 vtd	vdt	gnd dc = 2.9
 vtg	vgt	gnd dc = 0.65
 vts vst gnd dc = 3.3

 .op


 ***sweep***

 ***input***
 .alter trimp_ol_woload


 **warning**  the accurate option increases  the cpu time but the results
                are more accurate.
 ***accurate option sets default value of the options: 
 lvltim= 4         dvdt= 3       relvar= 200.00m absvar= 200.00m
     ft= 200.00m relmos=  10.00m
 (used for FFT control ) fft_accurate= 1
 

 

 **warning** the following singular supplies were terminated to 1 meg resistor 
   supply       node1            node2
  vb                      0:b0               defined in subckt 0                     0:0                defined in subckt 0               
  vb1                     0:b1               defined in subckt 0                     0:0                defined in subckt 0               
  vtd                     0:vdt              defined in subckt 0                     0:0                defined in subckt 0               
  vts                     0:vst              defined in subckt 0                     0:0                defined in subckt 0               
      
  *** initial damped pseudo transient completed. ***
  *** final try started ***
1****** HSPICE -- B-2008.09-SP1 32-BIT (Nov 24 2008) linux ******               
 ******  
 ***myop_2stage_aboveth

  ******  operating point information tnom=  25.000 temp=  25.000 *****
 ***** operating point status is all       simulation time is     0.     
    node    =voltage      node    =voltage      node    =voltage

 +0:1       =   0.6015  0:2       =   0.6015  0:b       =   0.8445 
 +0:b0      =   2.4000  0:b1      =   2.4000  0:c0      =   1.2281 
 +0:cn      =   0.4510  0:cp      =   2.6993  0:cz      =   2.3918 
 +0:vdd     =   3.3000  0:vdt     =   2.9000  0:vgt     =   0.6500 
 +0:vinn    =   0.      0:vinp    =   0.      0:vop     =   3.1594 
 +0:vss     =   0.      0:vst     =   3.3000 


 maximum nodal capacitance=   4.522E-13         on node     0:vss             

    nodal  capacitance table 

    node    =    cap      node    =    cap      node    =    cap

 +0:1       = 1.020e-13 0:2       = 1.181e-13 0:b       = 3.113e-13
 +0:b0      =   0.      0:b1      =   0.      0:c0      = 1.797e-14
 +0:cn      = 7.946e-14 0:cp      = 8.862e-14 0:cz      = 1.445e-13
 +0:vdd     = 4.303e-13 0:vdt     =   0.      0:vgt     = 5.362e-14
 +0:vinn    = 8.864e-14 0:vinp    = 8.864e-14 0:vop     = 1.167e-13
 +0:vss     = 4.522e-13 0:vst     =   0.     

 

 ****  voltage sources

 subckt                                                                    
 element  0:vd       0:vs       0:vb       0:vb1      0:vtd      0:vtg     
  volts      3.3000     0.         2.4000     2.4000     2.9000     0.6500 
  current -8.369e-06  9.399e-06 -2.400e-06 -2.400e-06 -2.900e-06 -1.031e-06
  power    2.762e-05    0.       5.760e-06  5.760e-06  8.410e-06  6.699e-07

 subckt             
 element  0:vts     
  volts      3.3000 
  current -3.300e-06
  power    1.089e-05

     total voltage source power dissipation=  5.911e-05       watts



 ***** current sources

 subckt             
 element  0:iic     
  volts      2.6993 
  current  2.000e-07
  power   -5.399e-07


     total current source power dissipation=-5.399e-07       watts


 **** mosfets


 subckt                                                                    
 element  0:mb       0:m1       0:m2       0:m3       0:m4       0:ma1     
 model    0:pch.1    0:pch.1    0:pch.1    0:nch.1    0:nch.1    0:pch.2   
 region     Saturati   Saturati   Saturati   Saturati   Saturati     Linear
  id      -1.075e-06 -5.376e-07 -5.376e-07  5.376e-07  5.376e-07 -6.085e-06
  ibs      2.159e-19  1.098e-19  1.098e-19 -9.254e-19 -9.254e-19  1.209e-18
  ibd      1.367e-12  5.918e-16  5.918e-16 -4.644e-15 -4.644e-15  7.607e-16
  vgs       -0.9082    -0.8445    -0.8445     0.6015     0.6015    -0.9082 
  vds       -2.4555    -0.2430    -0.2430     0.6015     0.6015    -0.1406 
  vbs        0.         0.         0.         0.         0.         0.     
  vth       -0.7486    -0.7602    -0.7602     0.5345     0.5345    -0.7591 
  vdsat     -0.1971    -0.1386    -0.1386     0.1106     0.1106    -0.1941 
  vod       -0.1596  -8.429e-02 -8.429e-02  6.699e-02  6.699e-02   -0.1491 
  beta     6.426e-05  7.564e-05  7.564e-05  1.171e-04  1.171e-04  4.670e-04
  gam eff    0.4097     0.4002     0.4002     0.4547     0.4547     0.3952 
  gm       1.017e-05  6.594e-06  6.594e-06  7.938e-06  7.938e-06  5.077e-05
  gds      2.139e-08  7.512e-08  7.512e-08  1.103e-08  1.103e-08  1.992e-05
  gmb      2.387e-06  1.560e-06  1.560e-06  2.358e-06  2.358e-06  1.118e-05
  cdtot    5.150e-15  1.034e-14  1.034e-14  4.158e-15  4.158e-15  1.335e-14
  cgtot    8.030e-14  8.864e-14  8.864e-14  4.376e-14  4.376e-14  2.673e-14
  cstot    9.632e-14  1.009e-13  1.009e-13  4.838e-14  4.838e-14  4.064e-14
  cbtot    3.860e-14  5.214e-14  5.214e-14  2.673e-14  2.673e-14  3.198e-14
  cgs      6.929e-14  7.133e-14  7.133e-14  3.336e-14  3.336e-14  2.246e-14
  cgd      9.242e-16  1.116e-15  1.116e-15  6.333e-16  6.333e-16  1.510e-15



 subckt                                                                    
 element  0:ma2      0:mc0      0:mc1      0:mc2      0:mc3      0:mcx     
 model    0:nch.3    0:pch.2    0:pch.3    0:pch.6    0:nch.3    0:pch.5   
 region     Saturati     Cutoff     Cutoff   Saturati     Cutoff   Saturati
  id       5.934e-06 -2.000e-07 -3.856e-07 -3.856e-07  3.856e-07 -6.232e-07
  ibs     -1.021e-17  3.946e-20  7.745e-20  8.444e-20 -6.154e-19  1.365e-19
  ibd     -1.504e-07  2.932e-15  2.527e-12  1.159e-16 -2.153e-14  1.160e-16
  vgs        0.6015    -0.6007    -0.6007    -0.7771     0.4510    -0.9082 
  vds        3.1594    -0.6007    -2.0719    -0.7771     0.4510    -0.9082 
  vbs        0.         0.         0.         0.         0.         0.     
  vth        0.5472    -0.7542    -0.6799    -0.7453     0.5699    -0.7777 
  vdsat    8.618e-02 -5.250e-02 -5.387e-02   -0.1032   4.416e-02   -0.1766 
  vod      5.430e-02    0.1534   7.924e-02 -3.181e-02   -0.1189    -0.1305 
  beta     1.628e-03  1.891e-03  1.252e-03  1.063e-04  8.618e-03  4.823e-05
  gam eff    0.5474     0.3953     0.4553     0.4082     0.5577     0.3889 
  gm       1.043e-04  4.356e-06  8.478e-06  5.705e-06  1.010e-05  6.636e-06
  gds      1.812e-06  3.944e-08  2.394e-07  1.672e-07  1.665e-07  6.281e-08
  gmb      2.732e-05  9.940e-07  1.857e-06  1.204e-06  2.903e-06  1.438e-06
  cdtot    3.389e-15  4.341e-14  1.084e-14  1.894e-15  2.054e-14  1.834e-15
  cgtot    3.600e-15  3.819e-14  7.021e-15  9.940e-16  1.269e-14  3.695e-15
  cstot    6.628e-15  5.371e-14  1.792e-14  2.737e-15  2.275e-14  5.705e-15
  cbtot    8.182e-15  1.118e-13  2.839e-14  4.395e-15  4.318e-14  5.203e-15
  cgs      2.048e-15  5.874e-15  1.848e-15  4.182e-16  3.200e-15  2.774e-15
  cgd      6.333e-16  5.874e-15  1.848e-15  1.922e-16  3.200e-15  1.922e-16



 subckt                        
 element  0:mcz      0:mt      
 model    0:nch.2    0:nch.1   
 region       Cutoff   Saturati
  id       6.226e-07  1.031e-06
  ibs     -9.372e-19 -1.774e-18
  ibd     -5.675e-10 -4.644e-15
  vgs        0.4510     0.6500 
  vds        2.3918     0.6500 
  vbs        0.         0.     
  vth        0.5636     0.5345 
  vdsat    4.471e-02    0.1435 
  vod       -0.1126     0.1155 
  beta     6.708e-03  1.168e-04
  gam eff    0.4720     0.4547 
  gm       1.564e-05  1.246e-05
  gds      8.596e-08  1.745e-08
  gmb      4.707e-06  3.683e-06
  cdtot    3.189e-14  4.128e-15
  cgtot    4.334e-14  4.949e-14
  cstot    4.284e-14  5.813e-14
  cbtot    9.314e-14  2.717e-14
  cgs      6.232e-15  4.070e-14
  cgd      6.232e-15  6.333e-16




          ***** job concluded
1****** HSPICE -- B-2008.09-SP1 32-BIT (Nov 24 2008) linux ******               
 ******  
 ***myop_2stage_aboveth

  ******  job statistics summary tnom=  25.000 temp=  25.000 *****

  ******  HSPICE Threads Information  ******
  Command Line Threads Count:                      0
  Available CPU Count:                             8
  Actual Model Evaluation(Load) Threads Count:     1
  Actual Solver Threads Count:                     1


  ******  Circuit Statistics  ******
  # nodes       =      46  # elements   =      27
  # resistors   =       4  # capacitors =       1  # inductors   =       0
  # mutual_inds =       0  # vccs       =       0  # vcvs        =       0
  # cccs        =       0  # ccvs       =       0  # volt_srcs   =       7
  # curr_srcs   =       1  # diodes     =       0  # bjts        =       0
  # jfets       =       0  # mosfets    =      14  # U elements  =       0
  # T elements  =       0  # W elements =       0  # B elements  =       0
  # S elements  =       0  # P elements =       0  # va device   =       0


  ******  Runtime Statistics (seconds)  ******

  analysis           time    # points   tot. iter  conv.iter
  op point           0.00           1          88
  readin             0.04
  errchk             0.01
  setup              0.00
  output             0.00


           total memory used          357  kbytes
           total cpu time            0.05 seconds
           total elapsed time        0.20 seconds
           job started at     14:57:31 01/27/2016
           job ended   at     14:57:31 01/27/2016


1****** HSPICE -- B-2008.09-SP1 32-BIT (Nov 24 2008) linux ******               
 ******  
  trimp_ol_woload

  ******    alter processing listing tnom=  25.000 temp=  25.000 *****
 vinp vinp gnd dc = 'comon-diff' *ac = 1
 vinn vinn gnd dc = 'comon+diff' ac = 1 *180
 .dc diff -0.5 0.5 0.01
 .ac dec 1000 0.1 1g
 *.tf v(voa) vinp
 .pz v(vop) vinn
 .probe dc i(m1) i(m2)	i(mt)
 .probe ac vp(vop)
 +gain1st=par('vdb(2)-vdb(vinp,vinn)')	par('i(m1)-i(m2)')	phase1st=par('vp(2)')
 +gainall=par('vdb(vop)-vdb(vinp,vinn)')		phaseall=par('vp(vop)')
 .meas ac gain max par('vdb(vop)-vdb(vinp,vinn)')
 .meas ac gain1st max par('vdb(2, 1)-vdb(vinp,vinn)')
 .meas ac zerodb when par('vdb(vop)-vdb(vinp,vinn)') = 0
 .meas ac phaseatdb	find par('vp(vop)') when par('vdb(vop)-vdb(vinp,vinn)') = 0

 .noise v(vop) vinn 100

 ***open loop wi loading test***
 .alter trimp_ol_wiload
 $ alter processing continues $


 **warning**  the accurate option increases  the cpu time but the results
                are more accurate.
 ***accurate option sets default value of the options: 
 lvltim= 4         dvdt= 3       relvar= 200.00m absvar= 200.00m
     ft= 200.00m relmos=  10.00m
 (used for FFT control ) fft_accurate= 1
 

 **warning** the following singular supplies were terminated to 1 meg resistor 
   supply       node1            node2
  vb                      0:b0               defined in subckt 0                     0:0                defined in subckt 0               
  vb1                     0:b1               defined in subckt 0                     0:0                defined in subckt 0               
  vtd                     0:vdt              defined in subckt 0                     0:0                defined in subckt 0               
  vts                     0:vst              defined in subckt 0                     0:0                defined in subckt 0               
      
  *** initial damped pseudo transient completed. ***
  *** final try started ***
1****** HSPICE -- B-2008.09-SP1 32-BIT (Nov 24 2008) linux ******               
 ******  
  trimp_ol_woload

  ******  operating point information tnom=  25.000 temp=  25.000 *****
 ***** operating point status is all       simulation time is     0.     
    node    =voltage      node    =voltage      node    =voltage

 +0:1       =   0.5989  0:2       =   0.5989  0:b       =   2.5363 
 +0:b0      =   2.4000  0:b1      =   2.4000  0:c0      =   1.2281 
 +0:cn      =   0.4510  0:cp      =   2.6993  0:cz      =   2.3918 
 +0:vdd     =   3.3000  0:vdt     =   2.9000  0:vgt     =   0.6500 
 +0:vinn    =   1.7000  0:vinp    =   1.7000  0:vop     =   3.1707 
 +0:vss     =   0.      0:vst     =   3.3000 


 maximum nodal capacitance=   4.504E-13         on node     0:vss             

    nodal  capacitance table 

    node    =    cap      node    =    cap      node    =    cap

 +0:1       = 9.774e-14 0:2       = 1.147e-13 0:b       = 2.990e-13
 +0:b0      =   0.      0:b1      =   0.      0:c0      = 1.797e-14
 +0:cn      = 7.946e-14 0:cp      = 8.862e-14 0:cz      = 1.451e-13
 +0:vdd     = 4.321e-13 0:vdt     =   0.      0:vgt     = 5.362e-14
 +0:vinn    = 8.632e-14 0:vinp    = 8.632e-14 0:vop     = 1.180e-13
 +0:vss     = 4.504e-13 0:vst     =   0.     

 

 ****  voltage sources

 subckt                                                                    
 element  0:vd       0:vs       0:vb       0:vb1      0:vtd      0:vtg     
  volts      3.3000     0.         2.4000     2.4000     2.9000     0.6500 
  current -8.083e-06  9.114e-06 -2.400e-06 -2.400e-06 -2.900e-06 -1.031e-06
  power    2.667e-05    0.       5.760e-06  5.760e-06  8.410e-06  6.699e-07

 subckt                                   
 element  0:vts      0:vinp     0:vinn    
  volts      3.3000     1.7000     1.7000 
  current -3.300e-06    0.         0.     
  power    1.089e-05    0.         0.     

     total voltage source power dissipation=  5.816e-05       watts



 ***** current sources

 subckt             
 element  0:iic     
  volts      2.6993 
  current  2.000e-07
  power   -5.399e-07


     total current source power dissipation=-5.399e-07       watts


 **** mosfets


 subckt                                                                    
 element  0:mb       0:m1       0:m2       0:m3       0:m4       0:ma1     
 model    0:pch.1    0:pch.1    0:pch.1    0:nch.1    0:nch.1    0:pch.2   
 region     Saturati   Saturati   Saturati   Saturati   Saturati     Linear
  id      -1.035e-06 -5.174e-07 -5.174e-07  5.174e-07  5.174e-07 -5.840e-06
  ibs      2.078e-19  1.056e-19  1.056e-19 -8.907e-19 -8.907e-19  1.160e-18
  ibd      4.759e-16  7.044e-14  7.044e-14 -4.644e-15 -4.644e-15  7.589e-16
  vgs       -0.9082    -0.8363    -0.8363     0.5989     0.5989    -0.9082 
  vds       -0.7637    -1.9374    -1.9374     0.5989     0.5989    -0.1293 
  vbs        0.         0.         0.         0.         0.         0.     
  vth       -0.7515    -0.7570    -0.7570     0.5345     0.5345    -0.7592 
  vdsat     -0.1947    -0.1352    -0.1352     0.1090     0.1090    -0.1941 
  vod       -0.1568  -7.934e-02 -7.934e-02  6.441e-02  6.441e-02   -0.1490 
  beta     6.423e-05  7.575e-05  7.575e-05  1.171e-04  1.171e-04  4.670e-04
  gam eff    0.4097     0.4002     0.4002     0.4547     0.4547     0.3952 
  gm       9.891e-06  6.486e-06  6.486e-06  7.718e-06  7.718e-06  4.730e-05
  gds      2.993e-08  1.473e-08  1.473e-08  1.072e-08  1.072e-08  2.334e-05
  gmb      2.322e-06  1.537e-06  1.537e-06  2.293e-06  2.293e-06  1.044e-05
  cdtot    6.934e-15  7.041e-15  7.041e-15  4.159e-15  4.159e-15  1.462e-14
  cgtot    8.030e-14  8.632e-14  8.632e-14  4.327e-14  4.327e-14  2.736e-14
  cstot    9.632e-14  9.731e-14  9.731e-14  4.755e-14  4.755e-14  4.061e-14
  cbtot    4.038e-14  4.871e-14  4.871e-14  2.669e-14  2.669e-14  3.205e-14
  cgs      6.929e-14  6.848e-14  6.848e-14  3.273e-14  3.273e-14  2.251e-14
  cgd      9.242e-16  1.116e-15  1.116e-15  6.333e-16  6.333e-16  2.226e-15



 subckt                                                                    
 element  0:ma2      0:mc0      0:mc1      0:mc2      0:mc3      0:mcx     
 model    0:nch.3    0:pch.2    0:pch.3    0:pch.6    0:nch.3    0:pch.5   
 region     Saturati     Cutoff     Cutoff   Saturati     Cutoff   Saturati
  id       5.691e-06 -2.000e-07 -3.856e-07 -3.856e-07  3.856e-07 -6.232e-07
  ibs     -9.787e-18  3.946e-20  7.745e-20  8.444e-20 -6.154e-19  1.365e-19
  ibd     -1.488e-07  2.932e-15  2.527e-12  1.159e-16 -2.153e-14  1.160e-16
  vgs        0.5989    -0.6007    -0.6007    -0.7771     0.4510    -0.9082 
  vds        3.1707    -0.6007    -2.0719    -0.7771     0.4510    -0.9082 
  vbs        0.         0.         0.         0.         0.         0.     
  vth        0.5471    -0.7542    -0.6799    -0.7453     0.5699    -0.7777 
  vdsat    8.482e-02 -5.250e-02 -5.387e-02   -0.1032   4.416e-02   -0.1766 
  vod      5.181e-02    0.1534   7.924e-02 -3.181e-02   -0.1189    -0.1305 
  beta     1.628e-03  1.891e-03  1.252e-03  1.063e-04  8.618e-03  4.823e-05
  gam eff    0.5474     0.3953     0.4553     0.4082     0.5577     0.3889 
  gm       1.011e-04  4.356e-06  8.478e-06  5.705e-06  1.010e-05  6.636e-06
  gds      1.762e-06  3.944e-08  2.394e-07  1.672e-07  1.665e-07  6.281e-08
  gmb      2.649e-05  9.940e-07  1.857e-06  1.204e-06  2.903e-06  1.438e-06
  cdtot    3.388e-15  4.341e-14  1.084e-14  1.894e-15  2.054e-14  1.834e-15
  cgtot    3.529e-15  3.819e-14  7.021e-15  9.940e-16  1.269e-14  3.695e-15
  cstot    6.505e-15  5.371e-14  1.792e-14  2.737e-15  2.275e-14  5.705e-15
  cbtot    8.173e-15  1.118e-13  2.839e-14  4.395e-15  4.318e-14  5.203e-15
  cgs      1.957e-15  5.874e-15  1.848e-15  4.182e-16  3.200e-15  2.774e-15
  cgd      6.333e-16  5.874e-15  1.848e-15  1.922e-16  3.200e-15  1.922e-16



 subckt                        
 element  0:mcz      0:mt      
 model    0:nch.2    0:nch.1   
 region       Cutoff   Saturati
  id       6.226e-07  1.031e-06
  ibs     -9.372e-19 -1.774e-18
  ibd     -5.675e-10 -4.644e-15
  vgs        0.4510     0.6500 
  vds        2.3918     0.6500 
  vbs        0.         0.     
  vth        0.5636     0.5345 
  vdsat    4.471e-02    0.1435 
  vod       -0.1126     0.1155 
  beta     6.708e-03  1.168e-04
  gam eff    0.4720     0.4547 
  gm       1.564e-05  1.246e-05
  gds      8.596e-08  1.745e-08
  gmb      4.707e-06  3.683e-06
  cdtot    3.189e-14  4.128e-15
  cgtot    4.334e-14  4.949e-14
  cstot    4.284e-14  5.813e-14
  cbtot    9.314e-14  2.717e-14
  cgs      6.232e-15  4.070e-14
  cgd      6.232e-15  6.333e-16



 ***************************************************
   ******   pole/zero analysis  
 
 
    input =  0:vinn          output = v(vop)
 
       poles (rad/sec)                 poles ( hertz)
 real            imag            real            imag            
 -48.5760k       0.              -7.73111k       0.              
 -43.0532x       0.              -6.85213x       0.              
 -54.2606x       0.              -8.63585x       0.              
 -73.0806x       -7.01536x       -11.6311x       -1.11653x       
 -73.0806x       7.01536x        -11.6311x       1.11653x        
 -144.534x       0.              -23.0032x       0.              
 -544.528x       0.              -86.6643x       0.              
 -3.95889g       0.              -630.077x       0.              
 
       zeros (rad/sec)                 zeros ( hertz)
 real            imag            real            imag            
 -42.0525x       0.              -6.69287x       0.              
 -53.9747x       0.              -8.59034x       0.              
 -80.9240x       0.              -12.8795x       0.              
 -113.775x       0.              -18.1079x       0.              
 -144.546x       0.              -23.0052x       0.              
 -544.523x       0.              -86.6635x       0.              
 853.022x        0.              135.763x        0.              
 1.23513g        0.              196.577x        0.              
 
  ***** constant factor = 179.538m
1****** HSPICE -- B-2008.09-SP1 32-BIT (Nov 24 2008) linux ******               
 ******  
  trimp_ol_woload

  ******  noise analysis tnom=  25.000 temp=  25.000 *****

     frequency =   0.1000       hz




 **** mosfet squared noise voltages (sq v/hz)




 element     0:mb
       rd  1.335e-23    
       rs  1.834e-18    
       id  7.575e-15    
       rx  2.618e+05    
       fn  2.102e-09    
    total  2.102e-09    




 element     0:m1
       rd  4.755e-19    
       rs  2.390e-13    
       id  1.672e-09    
       rx  1.592e+08    
       fn  2.767e-04    
    total  2.767e-04    




 element     0:m2
       rd  4.755e-19    
       rs  2.390e-13    
       id  1.672e-09    
       rx  1.592e+08    
       fn  2.767e-04    
    total  2.767e-04    




 element     0:m3
       rd  4.425e-19    
       rs  3.980e-13    
       id  2.091e-09    
       rx  1.589e+08    
       fn  1.523e-04    
    total  1.523e-04    




 element     0:m4
       rd  4.425e-19    
       rs  4.006e-13    
       id  2.105e-09    
       rx  1.594e+08    
       fn  1.533e-04    
    total  1.533e-04    




 element     0:ma1
       rd  9.224e-20    
       rs  1.113e-18    
       id  1.272e-15    
       rx  3.921e+04    
       fn  3.499e-09    
    total  3.499e-09    




 element     0:ma2
       rd  1.130e-21    
       rs  4.248e-18    
       id  1.420e-15    
       rx  3.918e+04    
       fn  2.244e-08    
    total  2.244e-08    




 element     0:mc0
       rd    0.         
       rs  7.411e-20    
       id    0.         
       rx  2.993e+05    
       fn  4.446e-10    
    total  4.446e-10    




 element     0:mc1
       rd  1.253e-22    
       rs  2.405e-19    
       id    0.         
       rx  1.552e+05    
       fn  4.055e-09    
    total  4.055e-09    




 element     0:mc2
       rd  7.450e-25    
       rs  1.599e-21    
       id  1.486e-18    
       rx  6.329e+03    
       fn  2.937e-11    
    total  2.937e-11    




 element     0:mc3
       rd  1.899e-23    
       rs  1.420e-19    
       id    0.         
       rx  1.615e+05    
       fn  7.545e-10    
    total  7.545e-10    




 element     0:mcx
       rd  3.651e-23    
       rs  6.208e-19    
       id  8.100e-16    
       rx  1.082e+05    
       fn  4.128e-09    
    total  4.128e-09    




 element     0:mcz
       rd  1.020e-24    
       rs  7.968e-20    
       id    0.         
       rx  1.083e+05    
       fn  1.539e-10    
    total  1.539e-10    




 element     0:mt
       rd    0.         
       rs    0.         
       id    0.         
       rx    0.         
       fn    0.         
    total    0.         




 **** total output noise voltage         = 8.591e-04       sq v/hz
                                         = 2.931e-02       v/rt hz
      transfer function value:
        v(vop)/vinn                      = 1.032e+03      
      equivalent input noise at vinn                          
                                         = 2.838e-05       /rt hz



 **** the results of the sqrt of integral (v**2 / freq)
      from fstart upto    0.1000       hz. using more freq points
      results in more accurate total noise values.

 **** total output noise voltage   =    0.            volts
 **** total equivalent input noise =    0.           



1****** HSPICE -- B-2008.09-SP1 32-BIT (Nov 24 2008) linux ******               
 ******  
  trimp_ol_woload

  ******  noise analysis tnom=  25.000 temp=  25.000 *****

     frequency =   0.1259       hz




 **** mosfet squared noise voltages (sq v/hz)




 element     0:mb
       rd  1.335e-23    
       rs  1.834e-18    
       id  7.575e-15    
       rx  2.618e+05    
       fn  1.670e-09    
    total  1.670e-09    




 element     0:m1
       rd  4.755e-19    
       rs  2.390e-13    
       id  1.672e-09    
       rx  1.592e+08    
       fn  2.198e-04    
    total  2.198e-04    




 element     0:m2
       rd  4.755e-19    
       rs  2.390e-13    
       id  1.672e-09    
       rx  1.592e+08    
       fn  2.198e-04    
    total  2.198e-04    




 element     0:m3
       rd  4.425e-19    
       rs  3.980e-13    
       id  2.091e-09    
       rx  1.589e+08    
       fn  1.252e-04    
    total  1.252e-04    




 element     0:m4
       rd  4.425e-19    
       rs  4.006e-13    
       id  2.105e-09    
       rx  1.594e+08    
       fn  1.260e-04    
    total  1.260e-04    




 element     0:ma1
       rd  9.224e-20    
       rs  1.113e-18    
       id  1.272e-15    
       rx  3.921e+04    
       fn  2.779e-09    
    total  2.779e-09    




 element     0:ma2
       rd  1.130e-21    
       rs  4.248e-18    
       id  1.420e-15    
       rx  3.918e+04    
       fn  1.845e-08    
    total  1.845e-08    




 element     0:mc0
       rd    0.         
       rs  7.411e-20    
       id    0.         
       rx  2.993e+05    
       fn  3.532e-10    
    total  3.532e-10    




 element     0:mc1
       rd  1.253e-22    
       rs  2.405e-19    
       id    0.         
       rx  1.552e+05    
       fn  3.221e-09    
    total  3.221e-09    




 element     0:mc2
       rd  7.450e-25    
       rs  1.599e-21    
       id  1.486e-18    
       rx  6.329e+03    
       fn  2.333e-11    
    total  2.333e-11    




 element     0:mc3
       rd  1.899e-23    
       rs  1.420e-19    
       id    0.         
       rx  1.615e+05    
       fn  6.204e-10    
    total  6.204e-10    




 element     0:mcx
       rd  3.651e-23    
       rs  6.208e-19    
       id  8.100e-16    
       rx  1.082e+05    
       fn  3.279e-09    
    total  3.279e-09    




 element     0:mcz
       rd  1.020e-24    
       rs  7.968e-20    
       id    0.         
       rx  1.083e+05    
       fn  1.265e-10    
    total  1.265e-10    




 element     0:mt
       rd    0.         
       rs    0.         
       id    0.         
       rx    0.         
       fn    0.         
    total    0.         




 **** total output noise voltage         = 6.909e-04       sq v/hz
                                         = 2.629e-02       v/rt hz
      transfer function value:
        v(vop)/vinn                      = 1.032e+03      
      equivalent input noise at vinn                          
                                         = 2.545e-05       /rt hz



 **** the results of the sqrt of integral (v**2 / freq)
      from fstart upto    0.1259       hz. using more freq points
      results in more accurate total noise values.

 **** total output noise voltage   =  4.461e-03       volts
 **** total equivalent input noise =  4.320e-06      



1****** HSPICE -- B-2008.09-SP1 32-BIT (Nov 24 2008) linux ******               
 ******  
  trimp_ol_woload

  ******  noise analysis tnom=  25.000 temp=  25.000 *****

     frequency =   0.1585       hz




 **** mosfet squared noise voltages (sq v/hz)




 element     0:mb
       rd  1.335e-23    
       rs  1.834e-18    
       id  7.575e-15    
       rx  2.618e+05    
       fn  1.326e-09    
    total  1.326e-09    




 element     0:m1
       rd  4.755e-19    
       rs  2.390e-13    
       id  1.672e-09    
       rx  1.592e+08    
       fn  1.746e-04    
    total  1.746e-04    




 element     0:m2
       rd  4.755e-19    
       rs  2.390e-13    
       id  1.672e-09    
       rx  1.592e+08    
       fn  1.746e-04    
    total  1.746e-04    




 element     0:m3
       rd  4.425e-19    
       rs  3.980e-13    
       id  2.091e-09    
       rx  1.589e+08    
       fn  1.029e-04    
    total  1.029e-04    




 element     0:m4
       rd  4.425e-19    
       rs  4.006e-13    
       id  2.105e-09    
       rx  1.594e+08    
       fn  1.036e-04    
    total  1.036e-04    




 element     0:ma1
       rd  9.224e-20    
       rs  1.113e-18    
       id  1.272e-15    
       rx  3.921e+04    
       fn  2.208e-09    
    total  2.208e-09    




 element     0:ma2
       rd  1.130e-21    
       rs  4.248e-18    
       id  1.420e-15    
       rx  3.918e+04    
       fn  1.517e-08    
    total  1.517e-08    




 element     0:mc0
       rd    0.         
       rs  7.411e-20    
       id    0.         
       rx  2.993e+05    
       fn  2.805e-10    
    total  2.805e-10    




 element     0:mc1
       rd  1.253e-22    
       rs  2.405e-19    
       id    0.         
       rx  1.552e+05    
       fn  2.558e-09    
    total  2.558e-09    




 element     0:mc2
       rd  7.450e-25    
       rs  1.599e-21    
       id  1.486e-18    
       rx  6.329e+03    
       fn  1.853e-11    
    total  1.853e-11    




 element     0:mc3
       rd  1.899e-23    
       rs  1.420e-19    
       id    0.         
       rx  1.615e+05    
       fn  5.101e-10    
    total  5.101e-10    




 element     0:mcx
       rd  3.651e-23    
       rs  6.208e-19    
       id  8.100e-16    
       rx  1.082e+05    
       fn  2.604e-09    
    total  2.604e-09    




 element     0:mcz
       rd  1.020e-24    
       rs  7.968e-20    
       id    0.         
       rx  1.083e+05    
       fn  1.040e-10    
    total  1.040e-10    




 element     0:mt
       rd    0.         
       rs    0.         
       id    0.         
       rx    0.         
       fn    0.         
    total    0.         




 **** total output noise voltage         = 5.558e-04       sq v/hz
                                         = 2.358e-02       v/rt hz
      transfer function value:
        v(vop)/vinn                      = 1.032e+03      
      equivalent input noise at vinn                          
                                         = 2.283e-05       /rt hz



 **** the results of the sqrt of integral (v**2 / freq)
      from fstart upto    0.1585       hz. using more freq points
      results in more accurate total noise values.

 **** total output noise voltage   =  6.329e-03       volts
 **** total equivalent input noise =  6.129e-06      



1****** HSPICE -- B-2008.09-SP1 32-BIT (Nov 24 2008) linux ******               
 ******  
  trimp_ol_woload

  ******  noise analysis tnom=  25.000 temp=  25.000 *****

     frequency =   0.1995       hz




 **** mosfet squared noise voltages (sq v/hz)




 element     0:mb
       rd  1.335e-23    
       rs  1.834e-18    
       id  7.575e-15    
       rx  2.618e+05    
       fn  1.054e-09    
    total  1.054e-09    




 element     0:m1
       rd  4.755e-19    
       rs  2.390e-13    
       id  1.672e-09    
       rx  1.592e+08    
       fn  1.387e-04    
    total  1.387e-04    




 element     0:m2
       rd  4.755e-19    
       rs  2.390e-13    
       id  1.672e-09    
       rx  1.592e+08    
       fn  1.387e-04    
    total  1.387e-04    




 element     0:m3
       rd  4.425e-19    
       rs  3.980e-13    
       id  2.091e-09    
       rx  1.589e+08    
       fn  8.465e-05    
    total  8.465e-05    




 element     0:m4
       rd  4.425e-19    
       rs  4.006e-13    
       id  2.105e-09    
       rx  1.594e+08    
       fn  8.521e-05    
    total  8.521e-05    




 element     0:ma1
       rd  9.224e-20    
       rs  1.113e-18    
       id  1.272e-15    
       rx  3.921e+04    
       fn  1.754e-09    
    total  1.754e-09    




 element     0:ma2
       rd  1.130e-21    
       rs  4.248e-18    
       id  1.420e-15    
       rx  3.918e+04    
       fn  1.248e-08    
    total  1.248e-08    




 element     0:mc0
       rd    0.         
       rs  7.411e-20    
       id    0.         
       rx  2.993e+05    
       fn  2.228e-10    
    total  2.228e-10    




 element     0:mc1
       rd  1.253e-22    
       rs  2.405e-19    
       id    0.         
       rx  1.552e+05    
       fn  2.032e-09    
    total  2.032e-09    




 element     0:mc2
       rd  7.450e-25    
       rs  1.599e-21    
       id  1.486e-18    
       rx  6.329e+03    
       fn  1.472e-11    
    total  1.472e-11    




 element     0:mc3
       rd  1.899e-23    
       rs  1.420e-19    
       id    0.         
       rx  1.615e+05    
       fn  4.194e-10    
    total  4.194e-10    




 element     0:mcx
       rd  3.651e-23    
       rs  6.208e-19    
       id  8.100e-16    
       rx  1.082e+05    
       fn  2.069e-09    
    total  2.069e-09    




 element     0:mcz
       rd  1.020e-24    
       rs  7.968e-20    
       id    0.         
       rx  1.083e+05    
       fn  8.553e-11    
    total  8.553e-11    




 element     0:mt
       rd    0.         
       rs    0.         
       id    0.         
       rx    0.         
       fn    0.         
    total    0.         




 **** total output noise voltage         = 4.473e-04       sq v/hz
                                         = 2.115e-02       v/rt hz
      transfer function value:
        v(vop)/vinn                      = 1.032e+03      
      equivalent input noise at vinn                          
                                         = 2.048e-05       /rt hz



 **** the results of the sqrt of integral (v**2 / freq)
      from fstart upto    0.1995       hz. using more freq points
      results in more accurate total noise values.

 **** total output noise voltage   =  7.777e-03       volts
 **** total equivalent input noise =  7.531e-06      



1****** HSPICE -- B-2008.09-SP1 32-BIT (Nov 24 2008) linux ******               
 ******  
  trimp_ol_woload

  ******  noise analysis tnom=  25.000 temp=  25.000 *****

     frequency =   0.2512       hz




 **** mosfet squared noise voltages (sq v/hz)




 element     0:mb
       rd  1.335e-23    
       rs  1.834e-18    
       id  7.575e-15    
       rx  2.618e+05    
       fn  8.370e-10    
    total  8.370e-10    




 element     0:m1
       rd  4.755e-19    
       rs  2.390e-13    
       id  1.672e-09    
       rx  1.592e+08    
       fn  1.102e-04    
    total  1.102e-04    




 element     0:m2
       rd  4.755e-19    
       rs  2.390e-13    
       id  1.672e-09    
       rx  1.592e+08    
       fn  1.102e-04    
    total  1.102e-04    




 element     0:m3
       rd  4.425e-19    
       rs  3.980e-13    
       id  2.091e-09    
       rx  1.589e+08    
       fn  6.960e-05    
    total  6.960e-05    




 element     0:m4
       rd  4.425e-19    
       rs  4.006e-13    
       id  2.105e-09    
       rx  1.594e+08    
       fn  7.006e-05    
    total  7.006e-05    




 element     0:ma1
       rd  9.224e-20    
       rs  1.113e-18    
       id  1.272e-15    
       rx  3.921e+04    
       fn  1.393e-09    
    total  1.393e-09    




 element     0:ma2
       rd  1.130e-21    
       rs  4.248e-18    
       id  1.420e-15    
       rx  3.918e+04    
       fn  1.026e-08    
    total  1.026e-08    




 element     0:mc0
       rd    0.         
       rs  7.411e-20    
       id    0.         
       rx  2.993e+05    
       fn  1.770e-10    
    total  1.770e-10    




 element     0:mc1
       rd  1.253e-22    
       rs  2.405e-19    
       id    0.         
       rx  1.552e+05    
       fn  1.614e-09    
    total  1.614e-09    




 element     0:mc2
       rd  7.450e-25    
       rs  1.599e-21    
       id  1.486e-18    
       rx  6.329e+03    
       fn  1.169e-11    
    total  1.169e-11    




 element     0:mc3
       rd  1.899e-23    
       rs  1.420e-19    
       id    0.         
       rx  1.615e+05    
       fn  3.449e-10    
    total  3.449e-10    




 element     0:mcx
       rd  3.651e-23    
       rs  6.208e-19    
       id  8.100e-16    
       rx  1.082e+05    
       fn  1.643e-09    
    total  1.643e-09    




 element     0:mcz
       rd  1.020e-24    
       rs  7.968e-20    
       id    0.         
       rx  1.083e+05    
       fn  7.033e-11    
    total  7.033e-11    




 element     0:mt
       rd    0.         
       rs    0.         
       id    0.         
       rx    0.         
       fn    0.         
    total    0.         




 **** total output noise voltage         = 3.600e-04       sq v/hz
                                         = 1.897e-02       v/rt hz
      transfer function value:
        v(vop)/vinn                      = 1.032e+03      
      equivalent input noise at vinn                          
                                         = 1.837e-05       /rt hz



 **** the results of the sqrt of integral (v**2 / freq)
      from fstart upto    0.2512       hz. using more freq points
      results in more accurate total noise values.

 **** total output noise voltage   =  9.009e-03       volts
 **** total equivalent input noise =  8.724e-06      



1****** HSPICE -- B-2008.09-SP1 32-BIT (Nov 24 2008) linux ******               
 ******  
  trimp_ol_woload

  ******  noise analysis tnom=  25.000 temp=  25.000 *****

     frequency =   0.3162       hz




 **** mosfet squared noise voltages (sq v/hz)




 element     0:mb
       rd  1.335e-23    
       rs  1.834e-18    
       id  7.575e-15    
       rx  2.618e+05    
       fn  6.648e-10    
    total  6.648e-10    




 element     0:m1
       rd  4.755e-19    
       rs  2.390e-13    
       id  1.672e-09    
       rx  1.592e+08    
       fn  8.751e-05    
    total  8.751e-05    




 element     0:m2
       rd  4.755e-19    
       rs  2.390e-13    
       id  1.672e-09    
       rx  1.592e+08    
       fn  8.751e-05    
    total  8.751e-05    




 element     0:m3
       rd  4.425e-19    
       rs  3.980e-13    
       id  2.091e-09    
       rx  1.589e+08    
       fn  5.723e-05    
    total  5.723e-05    




 element     0:m4
       rd  4.425e-19    
       rs  4.006e-13    
       id  2.105e-09    
       rx  1.594e+08    
       fn  5.761e-05    
    total  5.761e-05    




 element     0:ma1
       rd  9.224e-20    
       rs  1.113e-18    
       id  1.272e-15    
       rx  3.921e+04    
       fn  1.106e-09    
    total  1.106e-09    




 element     0:ma2
       rd  1.130e-21    
       rs  4.248e-18    
       id  1.420e-15    
       rx  3.918e+04    
       fn  8.435e-09    
    total  8.435e-09    




 element     0:mc0
       rd    0.         
       rs  7.411e-20    
       id    0.         
       rx  2.993e+05    
       fn  1.406e-10    
    total  1.406e-10    




 element     0:mc1
       rd  1.253e-22    
       rs  2.405e-19    
       id    0.         
       rx  1.552e+05    
       fn  1.282e-09    
    total  1.282e-09    




 element     0:mc2
       rd  7.450e-25    
       rs  1.599e-21    
       id  1.486e-18    
       rx  6.329e+03    
       fn  9.286e-12    
    total  9.286e-12    




 element     0:mc3
       rd  1.899e-23    
       rs  1.420e-19    
       id    0.         
       rx  1.615e+05    
       fn  2.836e-10    
    total  2.836e-10    




 element     0:mcx
       rd  3.651e-23    
       rs  6.208e-19    
       id  8.100e-16    
       rx  1.082e+05    
       fn  1.305e-09    
    total  1.305e-09    




 element     0:mcz
       rd  1.020e-24    
       rs  7.968e-20    
       id    0.         
       rx  1.083e+05    
       fn  5.782e-11    
    total  5.782e-11    




 element     0:mt
       rd    0.         
       rs    0.         
       id    0.         
       rx    0.         
       fn    0.         
    total    0.         




 **** total output noise voltage         = 2.899e-04       sq v/hz
                                         = 1.703e-02       v/rt hz
      transfer function value:
        v(vop)/vinn                      = 1.032e+03      
      equivalent input noise at vinn                          
                                         = 1.649e-05       /rt hz



 **** the results of the sqrt of integral (v**2 / freq)
      from fstart upto    0.3162       hz. using more freq points
      results in more accurate total noise values.

 **** total output noise voltage   =  1.011e-02       volts
 **** total equivalent input noise =  9.786e-06      



1****** HSPICE -- B-2008.09-SP1 32-BIT (Nov 24 2008) linux ******               
 ******  
  trimp_ol_woload

  ******  noise analysis tnom=  25.000 temp=  25.000 *****

     frequency =   0.3981       hz




 **** mosfet squared noise voltages (sq v/hz)




 element     0:mb
       rd  1.335e-23    
       rs  1.834e-18    
       id  7.575e-15    
       rx  2.618e+05    
       fn  5.281e-10    
    total  5.281e-10    




 element     0:m1
       rd  4.755e-19    
       rs  2.390e-13    
       id  1.672e-09    
       rx  1.592e+08    
       fn  6.951e-05    
    total  6.951e-05    




 element     0:m2
       rd  4.755e-19    
       rs  2.390e-13    
       id  1.672e-09    
       rx  1.592e+08    
       fn  6.951e-05    
    total  6.951e-05    




 element     0:m3
       rd  4.425e-19    
       rs  3.980e-13    
       id  2.091e-09    
       rx  1.589e+08    
       fn  4.706e-05    
    total  4.706e-05    




 element     0:m4
       rd  4.425e-19    
       rs  4.006e-13    
       id  2.105e-09    
       rx  1.594e+08    
       fn  4.737e-05    
    total  4.737e-05    




 element     0:ma1
       rd  9.224e-20    
       rs  1.113e-18    
       id  1.272e-15    
       rx  3.921e+04    
       fn  8.789e-10    
    total  8.789e-10    




 element     0:ma2
       rd  1.130e-21    
       rs  4.248e-18    
       id  1.420e-15    
       rx  3.918e+04    
       fn  6.936e-09    
    total  6.936e-09    




 element     0:mc0
       rd    0.         
       rs  7.411e-20    
       id    0.         
       rx  2.993e+05    
       fn  1.117e-10    
    total  1.117e-10    




 element     0:mc1
       rd  1.253e-22    
       rs  2.405e-19    
       id    0.         
       rx  1.552e+05    
       fn  1.018e-09    
    total  1.018e-09    




 element     0:mc2
       rd  7.450e-25    
       rs  1.599e-21    
       id  1.486e-18    
       rx  6.329e+03    
       fn  7.376e-12    
    total  7.376e-12    




 element     0:mc3
       rd  1.899e-23    
       rs  1.420e-19    
       id    0.         
       rx  1.615e+05    
       fn  2.332e-10    
    total  2.332e-10    




 element     0:mcx
       rd  3.651e-23    
       rs  6.208e-19    
       id  8.100e-16    
       rx  1.082e+05    
       fn  1.037e-09    
    total  1.037e-09    




 element     0:mcz
       rd  1.020e-24    
       rs  7.968e-20    
       id    0.         
       rx  1.083e+05    
       fn  4.755e-11    
    total  4.755e-11    




 element     0:mt
       rd    0.         
       rs    0.         
       id    0.         
       rx    0.         
       fn    0.         
    total    0.         




 **** total output noise voltage         = 2.335e-04       sq v/hz
                                         = 1.528e-02       v/rt hz
      transfer function value:
        v(vop)/vinn                      = 1.032e+03      
      equivalent input noise at vinn                          
                                         = 1.480e-05       /rt hz



 **** the results of the sqrt of integral (v**2 / freq)
      from fstart upto    0.3981       hz. using more freq points
      results in more accurate total noise values.

 **** total output noise voltage   =  1.111e-02       volts
 **** total equivalent input noise =  1.076e-05      



1****** HSPICE -- B-2008.09-SP1 32-BIT (Nov 24 2008) linux ******               
 ******  
  trimp_ol_woload

  ******  noise analysis tnom=  25.000 temp=  25.000 *****

     frequency =   0.5012       hz




 **** mosfet squared noise voltages (sq v/hz)




 element     0:mb
       rd  1.335e-23    
       rs  1.834e-18    
       id  7.575e-15    
       rx  2.618e+05    
       fn  4.195e-10    
    total  4.195e-10    




 element     0:m1
       rd  4.755e-19    
       rs  2.390e-13    
       id  1.672e-09    
       rx  1.592e+08    
       fn  5.522e-05    
    total  5.522e-05    




 element     0:m2
       rd  4.755e-19    
       rs  2.390e-13    
       id  1.672e-09    
       rx  1.592e+08    
       fn  5.522e-05    
    total  5.522e-05    




 element     0:m3
       rd  4.425e-19    
       rs  3.980e-13    
       id  2.091e-09    
       rx  1.589e+08    
       fn  3.869e-05    
    total  3.869e-05    




 element     0:m4
       rd  4.425e-19    
       rs  4.006e-13    
       id  2.105e-09    
       rx  1.594e+08    
       fn  3.895e-05    
    total  3.895e-05    




 element     0:ma1
       rd  9.224e-20    
       rs  1.113e-18    
       id  1.272e-15    
       rx  3.921e+04    
       fn  6.981e-10    
    total  6.981e-10    




 element     0:ma2
       rd  1.130e-21    
       rs  4.248e-18    
       id  1.420e-15    
       rx  3.918e+04    
       fn  5.703e-09    
    total  5.703e-09    




 element     0:mc0
       rd    0.         
       rs  7.411e-20    
       id    0.         
       rx  2.993e+05    
       fn  8.871e-11    
    total  8.871e-11    




 element     0:mc1
       rd  1.253e-22    
       rs  2.405e-19    
       id    0.         
       rx  1.552e+05    
       fn  8.090e-10    
    total  8.090e-10    




 element     0:mc2
       rd  7.450e-25    
       rs  1.599e-21    
       id  1.486e-18    
       rx  6.329e+03    
       fn  5.859e-12    
    total  5.859e-12    




 element     0:mc3
       rd  1.899e-23    
       rs  1.420e-19    
       id    0.         
       rx  1.615e+05    
       fn  1.917e-10    
    total  1.917e-10    




 element     0:mcx
       rd  3.651e-23    
       rs  6.208e-19    
       id  8.100e-16    
       rx  1.082e+05    
       fn  8.236e-10    
    total  8.236e-10    




 element     0:mcz
       rd  1.020e-24    
       rs  7.968e-20    
       id    0.         
       rx  1.083e+05    
       fn  3.909e-11    
    total  3.909e-11    




 element     0:mt
       rd    0.         
       rs    0.         
       id    0.         
       rx    0.         
       fn    0.         
    total    0.         




 **** total output noise voltage         = 1.881e-04       sq v/hz
                                         = 1.371e-02       v/rt hz
      transfer function value:
        v(vop)/vinn                      = 1.032e+03      
      equivalent input noise at vinn                          
                                         = 1.328e-05       /rt hz



 **** the results of the sqrt of integral (v**2 / freq)
      from fstart upto    0.5012       hz. using more freq points
      results in more accurate total noise values.

 **** total output noise voltage   =  1.204e-02       volts
 **** total equivalent input noise =  1.166e-05      



1****** HSPICE -- B-2008.09-SP1 32-BIT (Nov 24 2008) linux ******               
 ******  
  trimp_ol_woload

  ******  noise analysis tnom=  25.000 temp=  25.000 *****

     frequency =   0.6310       hz




 **** mosfet squared noise voltages (sq v/hz)




 element     0:mb
       rd  1.335e-23    
       rs  1.834e-18    
       id  7.575e-15    
       rx  2.618e+05    
       fn  3.332e-10    
    total  3.332e-10    




 element     0:m1
       rd  4.755e-19    
       rs  2.390e-13    
       id  1.672e-09    
       rx  1.592e+08    
       fn  4.386e-05    
    total  4.386e-05    




 element     0:m2
       rd  4.755e-19    
       rs  2.390e-13    
       id  1.672e-09    
       rx  1.592e+08    
       fn  4.386e-05    
    total  4.386e-05    




 element     0:m3
       rd  4.425e-19    
       rs  3.980e-13    
       id  2.091e-09    
       rx  1.589e+08    
       fn  3.181e-05    
    total  3.182e-05    




 element     0:m4
       rd  4.425e-19    
       rs  4.006e-13    
       id  2.105e-09    
       rx  1.594e+08    
       fn  3.202e-05    
    total  3.203e-05    




 element     0:ma1
       rd  9.224e-20    
       rs  1.113e-18    
       id  1.272e-15    
       rx  3.921e+04    
       fn  5.545e-10    
    total  5.545e-10    




 element     0:ma2
       rd  1.130e-21    
       rs  4.248e-18    
       id  1.420e-15    
       rx  3.918e+04    
       fn  4.689e-09    
    total  4.689e-09    




 element     0:mc0
       rd    0.         
       rs  7.411e-20    
       id    0.         
       rx  2.993e+05    
       fn  7.047e-11    
    total  7.047e-11    




 element     0:mc1
       rd  1.253e-22    
       rs  2.405e-19    
       id    0.         
       rx  1.552e+05    
       fn  6.426e-10    
    total  6.426e-10    




 element     0:mc2
       rd  7.450e-25    
       rs  1.599e-21    
       id  1.486e-18    
       rx  6.329e+03    
       fn  4.654e-12    
    total  4.654e-12    




 element     0:mc3
       rd  1.899e-23    
       rs  1.420e-19    
       id    0.         
       rx  1.615e+05    
       fn  1.576e-10    
    total  1.576e-10    




 element     0:mcx
       rd  3.651e-23    
       rs  6.208e-19    
       id  8.100e-16    
       rx  1.082e+05    
       fn  6.542e-10    
    total  6.542e-10    




 element     0:mcz
       rd  1.020e-24    
       rs  7.968e-20    
       id    0.         
       rx  1.083e+05    
       fn  3.214e-11    
    total  3.214e-11    




 element     0:mt
       rd    0.         
       rs    0.         
       id    0.         
       rx    0.         
       fn    0.         
    total    0.         




 **** total output noise voltage         = 1.516e-04       sq v/hz
                                         = 1.231e-02       v/rt hz
      transfer function value:
        v(vop)/vinn                      = 1.032e+03      
      equivalent input noise at vinn                          
                                         = 1.192e-05       /rt hz



 **** the results of the sqrt of integral (v**2 / freq)
      from fstart upto    0.6310       hz. using more freq points
      results in more accurate total noise values.

 **** total output noise voltage   =  1.291e-02       volts
 **** total equivalent input noise =  1.251e-05      



1****** HSPICE -- B-2008.09-SP1 32-BIT (Nov 24 2008) linux ******               
 ******  
  trimp_ol_woload

  ******  noise analysis tnom=  25.000 temp=  25.000 *****

     frequency =   0.7943       hz




 **** mosfet squared noise voltages (sq v/hz)




 element     0:mb
       rd  1.335e-23    
       rs  1.834e-18    
       id  7.575e-15    
       rx  2.618e+05    
       fn  2.647e-10    
    total  2.647e-10    




 element     0:m1
       rd  4.755e-19    
       rs  2.390e-13    
       id  1.672e-09    
       rx  1.592e+08    
       fn  3.484e-05    
    total  3.484e-05    




 element     0:m2
       rd  4.755e-19    
       rs  2.390e-13    
       id  1.672e-09    
       rx  1.592e+08    
       fn  3.484e-05    
    total  3.484e-05    




 element     0:m3
       rd  4.425e-19    
       rs  3.980e-13    
       id  2.091e-09    
       rx  1.589e+08    
       fn  2.616e-05    
    total  2.616e-05    




 element     0:m4
       rd  4.425e-19    
       rs  4.006e-13    
       id  2.105e-09    
       rx  1.594e+08    
       fn  2.633e-05    
    total  2.633e-05    




 element     0:ma1
       rd  9.224e-20    
       rs  1.113e-18    
       id  1.272e-15    
       rx  3.921e+04    
       fn  4.405e-10    
    total  4.405e-10    




 element     0:ma2
       rd  1.130e-21    
       rs  4.248e-18    
       id  1.420e-15    
       rx  3.918e+04    
       fn  3.856e-09    
    total  3.856e-09    




 element     0:mc0
       rd    0.         
       rs  7.411e-20    
       id    0.         
       rx  2.993e+05    
       fn  5.597e-11    
    total  5.597e-11    




 element     0:mc1
       rd  1.253e-22    
       rs  2.405e-19    
       id    0.         
       rx  1.552e+05    
       fn  5.105e-10    
    total  5.105e-10    




 element     0:mc2
       rd  7.450e-25    
       rs  1.599e-21    
       id  1.486e-18    
       rx  6.329e+03    
       fn  3.697e-12    
    total  3.697e-12    




 element     0:mc3
       rd  1.899e-23    
       rs  1.420e-19    
       id    0.         
       rx  1.615e+05    
       fn  1.296e-10    
    total  1.296e-10    




 element     0:mcx
       rd  3.651e-23    
       rs  6.208e-19    
       id  8.100e-16    
       rx  1.082e+05    
       fn  5.197e-10    
    total  5.197e-10    




 element     0:mcz
       rd  1.020e-24    
       rs  7.968e-20    
       id    0.         
       rx  1.083e+05    
       fn  2.643e-11    
    total  2.643e-11    




 element     0:mt
       rd    0.         
       rs    0.         
       id    0.         
       rx    0.         
       fn    0.         
    total    0.         




 **** total output noise voltage         = 1.222e-04       sq v/hz
                                         = 1.105e-02       v/rt hz
      transfer function value:
        v(vop)/vinn                      = 1.032e+03      
      equivalent input noise at vinn                          
                                         = 1.070e-05       /rt hz



 **** the results of the sqrt of integral (v**2 / freq)
      from fstart upto    0.7943       hz. using more freq points
      results in more accurate total noise values.

 **** total output noise voltage   =  1.375e-02       volts
 **** total equivalent input noise =  1.331e-05      



1****** HSPICE -- B-2008.09-SP1 32-BIT (Nov 24 2008) linux ******               
 ******  
  trimp_ol_woload

  ******  noise analysis tnom=  25.000 temp=  25.000 *****

     frequency =   1.0000       hz




 **** mosfet squared noise voltages (sq v/hz)




 element     0:mb
       rd  1.335e-23    
       rs  1.834e-18    
       id  7.575e-15    
       rx  2.618e+05    
       fn  2.102e-10    
    total  2.102e-10    




 element     0:m1
       rd  4.755e-19    
       rs  2.390e-13    
       id  1.672e-09    
       rx  1.592e+08    
       fn  2.767e-05    
    total  2.767e-05    




 element     0:m2
       rd  4.755e-19    
       rs  2.390e-13    
       id  1.672e-09    
       rx  1.592e+08    
       fn  2.767e-05    
    total  2.768e-05    




 element     0:m3
       rd  4.425e-19    
       rs  3.980e-13    
       id  2.091e-09    
       rx  1.589e+08    
       fn  2.151e-05    
    total  2.151e-05    




 element     0:m4
       rd  4.425e-19    
       rs  4.006e-13    
       id  2.105e-09    
       rx  1.594e+08    
       fn  2.165e-05    
    total  2.165e-05    




 element     0:ma1
       rd  9.224e-20    
       rs  1.113e-18    
       id  1.272e-15    
       rx  3.921e+04    
       fn  3.499e-10    
    total  3.499e-10    




 element     0:ma2
       rd  1.130e-21    
       rs  4.248e-18    
       id  1.420e-15    
       rx  3.918e+04    
       fn  3.170e-09    
    total  3.170e-09    




 element     0:mc0
       rd    0.         
       rs  7.411e-20    
       id    0.         
       rx  2.993e+05    
       fn  4.446e-11    
    total  4.446e-11    




 element     0:mc1
       rd  1.253e-22    
       rs  2.405e-19    
       id    0.         
       rx  1.552e+05    
       fn  4.055e-10    
    total  4.055e-10    




 element     0:mc2
       rd  7.450e-25    
       rs  1.599e-21    
       id  1.486e-18    
       rx  6.329e+03    
       fn  2.937e-12    
    total  2.937e-12    




 element     0:mc3
       rd  1.899e-23    
       rs  1.420e-19    
       id    0.         
       rx  1.615e+05    
       fn  1.066e-10    
    total  1.066e-10    




 element     0:mcx
       rd  3.651e-23    
       rs  6.208e-19    
       id  8.100e-16    
       rx  1.082e+05    
       fn  4.128e-10    
    total  4.128e-10    




 element     0:mcz
       rd  1.020e-24    
       rs  7.968e-20    
       id    0.         
       rx  1.083e+05    
       fn  2.173e-11    
    total  2.173e-11    




 element     0:mt
       rd    0.         
       rs    0.         
       id    0.         
       rx    0.         
       fn    0.         
    total    0.         




 **** total output noise voltage         = 9.852e-05       sq v/hz
                                         = 9.926e-03       v/rt hz
      transfer function value:
        v(vop)/vinn                      = 1.032e+03      
      equivalent input noise at vinn                          
                                         = 9.612e-06       /rt hz



 **** the results of the sqrt of integral (v**2 / freq)
      from fstart upto    1.0000       hz. using more freq points
      results in more accurate total noise values.

 **** total output noise voltage   =  1.454e-02       volts
 **** total equivalent input noise =  1.408e-05      



1****** HSPICE -- B-2008.09-SP1 32-BIT (Nov 24 2008) linux ******               
 ******  
  trimp_ol_woload

  ******  noise analysis tnom=  25.000 temp=  25.000 *****

     frequency =   1.2589       hz




 **** mosfet squared noise voltages (sq v/hz)




 element     0:mb
       rd  9.268e-24    
       rs  1.834e-18    
       id  7.575e-15    
       rx  2.618e+05    
       fn  1.670e-10    
    total  1.670e-10    




 element     0:m1
       rd  4.755e-19    
       rs  2.390e-13    
       id  1.672e-09    
       rx  1.592e+08    
       fn  2.198e-05    
    total  2.198e-05    




 element     0:m2
       rd  4.755e-19    
       rs  2.390e-13    
       id  1.672e-09    
       rx  1.592e+08    
       fn  2.198e-05    
    total  2.198e-05    




 element     0:m3
       rd  4.425e-19    
       rs  3.980e-13    
       id  2.091e-09    
       rx  1.589e+08    
       fn  1.769e-05    
    total  1.769e-05    




 element     0:m4
       rd  4.425e-19    
       rs  4.006e-13    
       id  2.105e-09    
       rx  1.594e+08    
       fn  1.780e-05    
    total  1.780e-05    




 element     0:ma1
       rd  9.224e-20    
       rs  1.113e-18    
       id  1.272e-15    
       rx  3.921e+04    
       fn  2.779e-10    
    total  2.779e-10    




 element     0:ma2
       rd  1.130e-21    
       rs  4.248e-18    
       id  1.420e-15    
       rx  3.918e+04    
       fn  2.607e-09    
    total  2.607e-09    




 element     0:mc0
       rd    0.         
       rs  7.411e-20    
       id    0.         
       rx  2.993e+05    
       fn  3.532e-11    
    total  3.532e-11    




 element     0:mc1
       rd  1.253e-22    
       rs  2.405e-19    
       id    0.         
       rx  1.552e+05    
       fn  3.221e-10    
    total  3.221e-10    




 element     0:mc2
       rd  7.450e-25    
       rs  1.599e-21    
       id  1.486e-18    
       rx  6.329e+03    
       fn  2.333e-12    
    total  2.333e-12    




 element     0:mc3
       rd  1.899e-23    
       rs  1.420e-19    
       id    0.         
       rx  1.615e+05    
       fn  8.763e-11    
    total  8.763e-11    




 element     0:mcx
       rd  3.651e-23    
       rs  6.208e-19    
       id  8.100e-16    
       rx  1.082e+05    
       fn  3.279e-10    
    total  3.279e-10    




 element     0:mcz
       rd  1.020e-24    
       rs  7.968e-20    
       id    0.         
       rx  1.083e+05    
       fn  1.787e-11    
    total  1.787e-11    




 element     0:mt
       rd    0.         
       rs    0.         
       id    0.         
       rx    0.         
       fn    0.         
    total    0.         




 **** total output noise voltage         = 7.946e-05       sq v/hz
                                         = 8.914e-03       v/rt hz
      transfer function value:
        v(vop)/vinn                      = 1.032e+03      
      equivalent input noise at vinn                          
                                         = 8.632e-06       /rt hz



 **** the results of the sqrt of integral (v**2 / freq)
      from fstart upto    1.2589       hz. using more freq points
      results in more accurate total noise values.

 **** total output noise voltage   =  1.531e-02       volts
 **** total equivalent input noise =  1.482e-05      



1****** HSPICE -- B-2008.09-SP1 32-BIT (Nov 24 2008) linux ******               
 ******  
  trimp_ol_woload

  ******  noise analysis tnom=  25.000 temp=  25.000 *****

     frequency =   1.5849       hz




 **** mosfet squared noise voltages (sq v/hz)




 element     0:mb
       rd  9.268e-24    
       rs  1.834e-18    
       id  7.575e-15    
       rx  2.618e+05    
       fn  1.326e-10    
    total  1.327e-10    




 element     0:m1
       rd  1.902e-18    
       rs  2.390e-13    
       id  1.672e-09    
       rx  1.592e+08    
       fn  1.746e-05    
    total  1.746e-05    




 element     0:m2
       rd  1.902e-18    
       rs  2.390e-13    
       id  1.672e-09    
       rx  1.592e+08    
       fn  1.746e-05    
    total  1.746e-05    




 element     0:m3
       rd  4.425e-19    
       rs  3.980e-13    
       id  2.091e-09    
       rx  1.589e+08    
       fn  1.454e-05    
    total  1.454e-05    




 element     0:m4
       rd  4.425e-19    
       rs  4.006e-13    
       id  2.105e-09    
       rx  1.594e+08    
       fn  1.464e-05    
    total  1.464e-05    




 element     0:ma1
       rd  9.212e-20    
       rs  1.113e-18    
       id  1.272e-15    
       rx  3.921e+04    
       fn  2.208e-10    
    total  2.208e-10    




 element     0:ma2
       rd  1.130e-21    
       rs  4.248e-18    
       id  1.420e-15    
       rx  3.918e+04    
       fn  2.143e-09    
    total  2.143e-09    




 element     0:mc0
       rd  9.300e-24    
       rs  7.411e-20    
       id    0.         
       rx  2.993e+05    
       fn  2.805e-11    
    total  2.805e-11    




 element     0:mc1
       rd  1.253e-22    
       rs  2.405e-19    
       id    0.         
       rx  1.552e+05    
       fn  2.558e-10    
    total  2.558e-10    




 element     0:mc2
       rd  7.450e-25    
       rs  1.599e-21    
       id  1.486e-18    
       rx  6.329e+03    
       fn  1.853e-12    
    total  1.853e-12    




 element     0:mc3
       rd  1.899e-23    
       rs  1.420e-19    
       id    0.         
       rx  1.615e+05    
       fn  7.205e-11    
    total  7.205e-11    




 element     0:mcx
       rd  3.826e-23    
       rs  6.208e-19    
       id  8.100e-16    
       rx  1.082e+05    
       fn  2.604e-10    
    total  2.604e-10    




 element     0:mcz
       rd  1.020e-24    
       rs  7.968e-20    
       id    0.         
       rx  1.083e+05    
       fn  1.469e-11    
    total  1.469e-11    




 element     0:mt
       rd    0.         
       rs    0.         
       id    0.         
       rx    0.         
       fn    0.         
    total    0.         




 **** total output noise voltage         = 6.411e-05       sq v/hz
                                         = 8.007e-03       v/rt hz
      transfer function value:
        v(vop)/vinn                      = 1.032e+03      
      equivalent input noise at vinn                          
                                         = 7.754e-06       /rt hz



 **** the results of the sqrt of integral (v**2 / freq)
      from fstart upto    1.5849       hz. using more freq points
      results in more accurate total noise values.

 **** total output noise voltage   =  1.605e-02       volts
 **** total equivalent input noise =  1.554e-05      



1****** HSPICE -- B-2008.09-SP1 32-BIT (Nov 24 2008) linux ******               
 ******  
  trimp_ol_woload

  ******  noise analysis tnom=  25.000 temp=  25.000 *****

     frequency =   1.9953       hz




 **** mosfet squared noise voltages (sq v/hz)




 element     0:mb
       rd  1.335e-23    
       rs  1.834e-18    
       id  7.575e-15    
       rx  2.618e+05    
       fn  1.054e-10    
    total  1.054e-10    




 element     0:m1
       rd  4.755e-19    
       rs  2.390e-13    
       id  1.672e-09    
       rx  1.592e+08    
       fn  1.387e-05    
    total  1.387e-05    




 element     0:m2
       rd  4.755e-19    
       rs  2.390e-13    
       id  1.672e-09    
       rx  1.592e+08    
       fn  1.387e-05    
    total  1.387e-05    




 element     0:m3
       rd  4.425e-19    
       rs  3.980e-13    
       id  2.091e-09    
       rx  1.589e+08    
       fn  1.196e-05    
    total  1.196e-05    




 element     0:m4
       rd  4.425e-19    
       rs  4.006e-13    
       id  2.105e-09    
       rx  1.594e+08    
       fn  1.204e-05    
    total  1.204e-05    




 element     0:ma1
       rd  9.224e-20    
       rs  1.113e-18    
       id  1.272e-15    
       rx  3.921e+04    
       fn  1.754e-10    
    total  1.754e-10    




 element     0:ma2
       rd  1.130e-21    
       rs  4.248e-18    
       id  1.420e-15    
       rx  3.918e+04    
       fn  1.762e-09    
    total  1.762e-09    




 element     0:mc0
       rd  9.300e-24    
       rs  7.411e-20    
       id    0.         
       rx  2.993e+05    
       fn  2.228e-11    
    total  2.228e-11    




 element     0:mc1
       rd  1.253e-22    
       rs  2.405e-19    
       id    0.         
       rx  1.552e+05    
       fn  2.032e-10    
    total  2.032e-10    




 element     0:mc2
       rd  1.324e-24    
       rs  1.599e-21    
       id  1.486e-18    
       rx  6.329e+03    
       fn  1.472e-12    
    total  1.472e-12    




 element     0:mc3
       rd  3.376e-23    
       rs  1.420e-19    
       id    0.         
       rx  1.615e+05    
       fn  5.924e-11    
    total  5.924e-11    




 element     0:mcx
       rd  3.651e-23    
       rs  6.208e-19    
       id  8.100e-16    
       rx  1.082e+05    
       fn  2.069e-10    
    total  2.069e-10    




 element     0:mcz
       rd  1.020e-24    
       rs  7.968e-20    
       id    0.         
       rx  1.083e+05    
       fn  1.208e-11    
    total  1.208e-11    




 element     0:mt
       rd    0.         
       rs    0.         
       id    0.         
       rx    0.         
       fn    0.         
    total    0.         




 **** total output noise voltage         = 5.174e-05       sq v/hz
                                         = 7.193e-03       v/rt hz
      transfer function value:
        v(vop)/vinn                      = 1.032e+03      
      equivalent input noise at vinn                          
                                         = 6.966e-06       /rt hz



 **** the results of the sqrt of integral (v**2 / freq)
      from fstart upto    1.9953       hz. using more freq points
      results in more accurate total noise values.

 **** total output noise voltage   =  1.677e-02       volts
 **** total equivalent input noise =  1.624e-05      



1****** HSPICE -- B-2008.09-SP1 32-BIT (Nov 24 2008) linux ******               
 ******  
  trimp_ol_woload

  ******  noise analysis tnom=  25.000 temp=  25.000 *****

     frequency =   2.5119       hz




 **** mosfet squared noise voltages (sq v/hz)




 element     0:mb
       rd  9.268e-24    
       rs  1.834e-18    
       id  7.575e-15    
       rx  2.618e+05    
       fn  8.370e-11    
    total  8.370e-11    




 element     0:m1
       rd  4.755e-19    
       rs  2.390e-13    
       id  1.672e-09    
       rx  1.592e+08    
       fn  1.102e-05    
    total  1.102e-05    




 element     0:m2
       rd  4.755e-19    
       rs  2.390e-13    
       id  1.672e-09    
       rx  1.592e+08    
       fn  1.102e-05    
    total  1.102e-05    




 element     0:m3
       rd  4.425e-19    
       rs  3.980e-13    
       id  2.091e-09    
       rx  1.589e+08    
       fn  9.831e-06    
    total  9.833e-06    




 element     0:m4
       rd  4.425e-19    
       rs  4.006e-13    
       id  2.105e-09    
       rx  1.594e+08    
       fn  9.896e-06    
    total  9.898e-06    




 element     0:ma1
       rd  9.224e-20    
       rs  1.113e-18    
       id  1.272e-15    
       rx  3.921e+04    
       fn  1.393e-10    
    total  1.393e-10    




 element     0:ma2
       rd  1.130e-21    
       rs  4.248e-18    
       id  1.420e-15    
       rx  3.918e+04    
       fn  1.449e-09    
    total  1.449e-09    




 element     0:mc0
       rd  9.300e-24    
       rs  7.411e-20    
       id    0.         
       rx  2.993e+05    
       fn  1.770e-11    
    total  1.770e-11    




 element     0:mc1
       rd  1.253e-22    
       rs  2.405e-19    
       id    0.         
       rx  1.552e+05    
       fn  1.614e-10    
    total  1.614e-10    




 element     0:mc2
       rd  7.450e-25    
       rs  1.599e-21    
       id  1.486e-18    
       rx  6.329e+03    
       fn  1.169e-12    
    total  1.169e-12    




 element     0:mc3
       rd  1.899e-23    
       rs  1.420e-19    
       id    0.         
       rx  1.615e+05    
       fn  4.871e-11    
    total  4.871e-11    




 element     0:mcx
       rd  3.651e-23    
       rs  6.208e-19    
       id  8.100e-16    
       rx  1.082e+05    
       fn  1.643e-10    
    total  1.643e-10    




 element     0:mcz
       rd  1.020e-24    
       rs  7.968e-20    
       id    0.         
       rx  1.083e+05    
       fn  9.934e-12    
    total  9.934e-12    




 element     0:mt
       rd    0.         
       rs    0.         
       id    0.         
       rx    0.         
       fn    0.         
    total    0.         




 **** total output noise voltage         = 4.177e-05       sq v/hz
                                         = 6.463e-03       v/rt hz
      transfer function value:
        v(vop)/vinn                      = 1.032e+03      
      equivalent input noise at vinn                          
                                         = 6.259e-06       /rt hz



 **** the results of the sqrt of integral (v**2 / freq)
      from fstart upto    2.5119       hz. using more freq points
      results in more accurate total noise values.

 **** total output noise voltage   =  1.747e-02       volts
 **** total equivalent input noise =  1.692e-05      



1****** HSPICE -- B-2008.09-SP1 32-BIT (Nov 24 2008) linux ******               
 ******  
  trimp_ol_woload

  ******  noise analysis tnom=  25.000 temp=  25.000 *****

     frequency =   3.1623       hz




 **** mosfet squared noise voltages (sq v/hz)




 element     0:mb
       rd  9.268e-24    
       rs  1.834e-18    
       id  7.575e-15    
       rx  2.618e+05    
       fn  6.648e-11    
    total  6.649e-11    




 element     0:m1
       rd  4.755e-19    
       rs  2.390e-13    
       id  1.672e-09    
       rx  1.592e+08    
       fn  8.751e-06    
    total  8.753e-06    




 element     0:m2
       rd  4.755e-19    
       rs  2.390e-13    
       id  1.672e-09    
       rx  1.592e+08    
       fn  8.751e-06    
    total  8.753e-06    




 element     0:m3
       rd  4.425e-19    
       rs  3.980e-13    
       id  2.091e-09    
       rx  1.589e+08    
       fn  8.084e-06    
    total  8.086e-06    




 element     0:m4
       rd  4.425e-19    
       rs  4.006e-13    
       id  2.105e-09    
       rx  1.594e+08    
       fn  8.137e-06    
    total  8.139e-06    




 element     0:ma1
       rd  9.212e-20    
       rs  1.113e-18    
       id  1.272e-15    
       rx  3.921e+04    
       fn  1.106e-10    
    total  1.106e-10    




 element     0:ma2
       rd  1.130e-21    
       rs  4.248e-18    
       id  1.420e-15    
       rx  3.918e+04    
       fn  1.191e-09    
    total  1.191e-09    




 element     0:mc0
       rd  9.300e-24    
       rs  7.411e-20    
       id    0.         
       rx  2.993e+05    
       fn  1.406e-11    
    total  1.406e-11    




 element     0:mc1
       rd  1.253e-22    
       rs  2.405e-19    
       id    0.         
       rx  1.552e+05    
       fn  1.282e-10    
    total  1.282e-10    




 element     0:mc2
       rd  1.324e-24    
       rs  1.599e-21    
       id  1.486e-18    
       rx  6.329e+03    
       fn  9.286e-13    
    total  9.286e-13    




 element     0:mc3
       rd  3.376e-23    
       rs  1.420e-19    
       id    0.         
       rx  1.615e+05    
       fn  4.005e-11    
    total  4.005e-11    




 element     0:mcx
       rd  3.651e-23    
       rs  6.208e-19    
       id  8.100e-16    
       rx  1.082e+05    
       fn  1.305e-10    
    total  1.305e-10    




 element     0:mcz
       rd  1.020e-24    
       rs  7.968e-20    
       id    0.         
       rx  1.083e+05    
       fn  8.168e-12    
    total  8.168e-12    




 element     0:mt
       rd    0.         
       rs    0.         
       id    0.         
       rx    0.         
       fn    0.         
    total    0.         




 **** total output noise voltage         = 3.373e-05       sq v/hz
                                         = 5.808e-03       v/rt hz
      transfer function value:
        v(vop)/vinn                      = 1.032e+03      
      equivalent input noise at vinn                          
                                         = 5.624e-06       /rt hz



 **** the results of the sqrt of integral (v**2 / freq)
      from fstart upto    3.1623       hz. using more freq points
      results in more accurate total noise values.

 **** total output noise voltage   =  1.815e-02       volts
 **** total equivalent input noise =  1.758e-05      



1****** HSPICE -- B-2008.09-SP1 32-BIT (Nov 24 2008) linux ******               
 ******  
  trimp_ol_woload

  ******  noise analysis tnom=  25.000 temp=  25.000 *****

     frequency =   3.9811       hz




 **** mosfet squared noise voltages (sq v/hz)




 element     0:mb
       rd  9.268e-24    
       rs  1.834e-18    
       id  7.575e-15    
       rx  2.618e+05    
       fn  5.281e-11    
    total  5.282e-11    




 element     0:m1
       rd  4.755e-19    
       rs  2.390e-13    
       id  1.672e-09    
       rx  1.592e+08    
       fn  6.951e-06    
    total  6.953e-06    




 element     0:m2
       rd  4.755e-19    
       rs  2.390e-13    
       id  1.672e-09    
       rx  1.592e+08    
       fn  6.951e-06    
    total  6.953e-06    




 element     0:m3
       rd  4.425e-19    
       rs  3.980e-13    
       id  2.091e-09    
       rx  1.589e+08    
       fn  6.647e-06    
    total  6.649e-06    




 element     0:m4
       rd  4.425e-19    
       rs  4.006e-13    
       id  2.105e-09    
       rx  1.594e+08    
       fn  6.691e-06    
    total  6.693e-06    




 element     0:ma1
       rd  9.224e-20    
       rs  1.113e-18    
       id  1.272e-15    
       rx  3.921e+04    
       fn  8.789e-11    
    total  8.789e-11    




 element     0:ma2
       rd  1.130e-21    
       rs  4.248e-18    
       id  1.420e-15    
       rx  3.918e+04    
       fn  9.797e-10    
    total  9.797e-10    




 element     0:mc0
       rd    0.         
       rs  7.411e-20    
       id    0.         
       rx  2.993e+05    
       fn  1.117e-11    
    total  1.117e-11    




 element     0:mc1
       rd  1.253e-22    
       rs  2.405e-19    
       id    0.         
       rx  1.552e+05    
       fn  1.018e-10    
    total  1.018e-10    




 element     0:mc2
       rd  1.324e-24    
       rs  1.599e-21    
       id  1.486e-18    
       rx  6.329e+03    
       fn  7.376e-13    
    total  7.376e-13    




 element     0:mc3
       rd  3.376e-23    
       rs  1.420e-19    
       id    0.         
       rx  1.615e+05    
       fn  3.293e-11    
    total  3.293e-11    




 element     0:mcx
       rd  3.651e-23    
       rs  6.208e-19    
       id  8.100e-16    
       rx  1.082e+05    
       fn  1.037e-10    
    total  1.037e-10    




 element     0:mcz
       rd  1.020e-24    
       rs  7.968e-20    
       id    0.         
       rx  1.083e+05    
       fn  6.716e-12    
    total  6.716e-12    




 element     0:mt
       rd    0.         
       rs    0.         
       id    0.         
       rx    0.         
       fn    0.         
    total    0.         




 **** total output noise voltage         = 2.725e-05       sq v/hz
                                         = 5.220e-03       v/rt hz
      transfer function value:
        v(vop)/vinn                      = 1.032e+03      
      equivalent input noise at vinn                          
                                         = 5.055e-06       /rt hz



 **** the results of the sqrt of integral (v**2 / freq)
      from fstart upto    3.9811       hz. using more freq points
      results in more accurate total noise values.

 **** total output noise voltage   =  1.882e-02       volts
 **** total equivalent input noise =  1.823e-05      



1****** HSPICE -- B-2008.09-SP1 32-BIT (Nov 24 2008) linux ******               
 ******  
  trimp_ol_woload

  ******  noise analysis tnom=  25.000 temp=  25.000 *****

     frequency =   5.0119       hz




 **** mosfet squared noise voltages (sq v/hz)




 element     0:mb
       rd  9.268e-24    
       rs  1.834e-18    
       id  7.575e-15    
       rx  2.618e+05    
       fn  4.195e-11    
    total  4.195e-11    




 element     0:m1
       rd  4.755e-19    
       rs  2.390e-13    
       id  1.672e-09    
       rx  1.592e+08    
       fn  5.522e-06    
    total  5.523e-06    




 element     0:m2
       rd  4.755e-19    
       rs  2.390e-13    
       id  1.672e-09    
       rx  1.592e+08    
       fn  5.522e-06    
    total  5.523e-06    




 element     0:m3
       rd  4.425e-19    
       rs  3.980e-13    
       id  2.091e-09    
       rx  1.589e+08    
       fn  5.465e-06    
    total  5.467e-06    




 element     0:m4
       rd  4.425e-19    
       rs  4.006e-13    
       id  2.105e-09    
       rx  1.594e+08    
       fn  5.501e-06    
    total  5.504e-06    




 element     0:ma1
       rd  9.212e-20    
       rs  1.113e-18    
       id  1.272e-15    
       rx  3.921e+04    
       fn  6.981e-11    
    total  6.981e-11    




 element     0:ma2
       rd  1.130e-21    
       rs  4.248e-18    
       id  1.420e-15    
       rx  3.918e+04    
       fn  8.056e-10    
    total  8.056e-10    




 element     0:mc0
       rd  9.300e-24    
       rs  7.411e-20    
       id    0.         
       rx  2.993e+05    
       fn  8.871e-12    
    total  8.871e-12    




 element     0:mc1
       rd  1.253e-22    
       rs  2.405e-19    
       id    0.         
       rx  1.552e+05    
[...]




 element     0:rin
       rs  2.100e-18    
      1/f    0.         
    total  2.100e-18    
       rx  1.597e+03    




 element     0:rl
       rs  1.854e-17    
      1/f    0.         
    total  1.854e-17    
       rx  4.745e+03    



 **** mosfet squared noise voltages (sq v/hz)




 element     0:mb
       rd  4.973e-23    
       rs  8.727e-21    
       id  8.348e-20    
       rx  869.1754     
       fn  5.820e-24    
    total  9.227e-20    




 element     0:m1
       rd  3.075e-23    
       rs  3.181e-21    
       id  6.080e-20    
       rx  960.2354     
       fn  2.527e-24    
    total  6.402e-20    




 element     0:m2
       rd  1.307e-21    
       rs  4.439e-21    
       id  1.880e-18    
       rx  5.336e+03    
       fn  7.812e-23    
    total  1.885e-18    




 element     0:m3
       rd  2.937e-25    
       rs  2.569e-23    
       id  1.993e-21    
       rx  155.1845     
       fn  1.003e-24    
    total  2.020e-21    




 element     0:m4
       rd  5.550e-22    
       rs  3.384e-22    
       id  2.751e-18    
       rx  5.764e+03    
       fn  1.387e-21    
    total  2.753e-18    




 element     0:ma1
       rd  1.996e-21    
       rs  2.779e-20    
       id  2.772e-17    
       rx  5.830e+03    
       fn  5.654e-20    
    total  2.781e-17    




 element     0:ma2
       rd  3.634e-22    
       rs  1.459e-19    
       id  5.104e-17    
       rx  5.824e+03    
       fn  5.851e-18    
    total  5.703e-17    




 element     0:mc0
       rd  1.061e-27    
       rs    0.         
       id    0.         
       rx    2.0566     
       fn    0.         
    total  1.096e-27    




 element     0:mc1
       rd  1.093e-25    
       rs  1.610e-26    
       id    0.         
       rx   40.9605     
       fn  7.093e-26    
    total  1.963e-25    




 element     0:mc2
       rd  2.411e-25    
       rs  6.794e-25    
       id  6.162e-22    
       rx  128.8797     
       fn  3.059e-24    
    total  6.202e-22    




 element     0:mc3
       rd  1.541e-24    
       rs  1.946e-25    
       id    0.         
       rx  161.6220     
       fn  5.224e-24    
    total  6.959e-24    




 element     0:mcx
       rd  2.385e-23    
       rs  1.615e-22    
       id  1.221e-19    
       rx  1.329e+03    
       fn  1.562e-22    
    total  1.224e-19    




 element     0:mcz
       rd  1.770e-22    
       rs  1.042e-23    
       id    0.         
       rx  1.329e+03    
       fn  1.604e-22    
    total  3.478e-22    




 element     0:mt
       rd    0.         
       rs    0.         
       id    0.         
       rx    0.         
       fn    0.         
    total    0.         




 **** total output noise voltage         = 1.104e-16       sq v/hz
                                         = 1.051e-08       v/rt hz
      transfer function value:
        v(vop)/vinn                      = 7.986e-02      
      equivalent input noise at vinn                          
                                         = 1.316e-07       /rt hz



 **** the results of the sqrt of integral (v**2 / freq)
      from fstart upto  3.981e+08      hz. using more freq points
      results in more accurate total noise values.

 **** total output noise voltage   =  4.705e-04       volts
 **** total equivalent input noise =  2.382e-03      



1****** HSPICE -- B-2008.09-SP1 32-BIT (Nov 24 2008) linux ******               
 ******  
  trimp_idcrtest

  ******  noise analysis tnom=  25.000 temp=  25.000 *****

     frequency = 5.011e+08      hz




 **** resistor squared noise voltages (sq v/hz)




 element     0:rin
       rs  1.455e-18    
      1/f    0.         
    total  1.455e-18    
       rx  1.329e+03    




 element     0:rl
       rs  1.821e-17    
      1/f    0.         
    total  1.821e-17    
       rx  4.702e+03    



 **** mosfet squared noise voltages (sq v/hz)




 element     0:mb
       rd  5.457e-23    
       rs  8.010e-21    
       id  5.870e-20    
       rx  728.8593     
       fn  3.251e-24    
    total  6.677e-20    




 element     0:m1
       rd  3.186e-23    
       rs  3.551e-21    
       id  4.017e-20    
       rx  780.5067     
       fn  1.326e-24    
    total  4.376e-20    




 element     0:m2
       rd  1.733e-21    
       rs  4.554e-21    
       id  1.576e-18    
       rx  4.885e+03    
       fn  5.202e-23    
    total  1.582e-18    




 element     0:m3
       rd  2.575e-25    
       rs  2.237e-23    
       id  1.101e-21    
       rx  115.3593     
       fn  4.559e-25    
    total  1.124e-21    




 element     0:m4
       rd  7.373e-22    
       rs  2.910e-22    
       id  2.306e-18    
       rx  5.277e+03    
       fn  9.556e-22    
    total  2.308e-18    




 element     0:ma1
       rd  2.876e-21    
       rs  2.533e-20    
       id  2.524e-17    
       rx  5.564e+03    
       fn  4.090e-20    
    total  2.531e-17    




 element     0:ma2
       rd  5.065e-22    
       rs  1.330e-19    
       id  4.648e-17    
       rx  5.558e+03    
       fn  4.381e-18    
    total  5.099e-17    




 element     0:mc0
       rd  4.732e-28    
       rs    0.         
       id    0.         
       rx    1.0906     
       fn    0.         
    total  4.869e-28    




 element     0:mc1
       rd  6.804e-26    
       rs  6.328e-27    
       id    0.         
       rx   25.6757     
       fn  2.214e-26    
    total  9.651e-26    




 element     0:mc2
       rd  1.813e-25    
       rs  3.266e-25    
       id  2.926e-22    
       rx   88.8067     
       fn  1.154e-24    
    total  2.942e-22    




 element     0:mc3
       rd  1.145e-24    
       rs  1.056e-25    
       id    0.         
       rx  110.6582     
       fn  2.014e-24    
    total  3.264e-24    




 element     0:mcx
       rd  2.165e-23    
       rs  1.153e-22    
       id  6.990e-20    
       rx  1.005e+03    
       fn  7.107e-23    
    total  7.011e-20    




 element     0:mcz
       rd  1.605e-22    
       rs  5.979e-24    
       id    0.         
       rx  1.006e+03    
       fn  7.552e-23    
    total  2.420e-22    




 element     0:mt
       rd    0.         
       rs    0.         
       id    0.         
       rx    0.         
       fn    0.         
    total    0.         




 **** total output noise voltage         = 1.000e-16       sq v/hz
                                         = 1.000e-08       v/rt hz
      transfer function value:
        v(vop)/vinn                      = 6.646e-02      
      equivalent input noise at vinn                          
                                         = 1.505e-07       /rt hz



 **** the results of the sqrt of integral (v**2 / freq)
      from fstart upto  5.011e+08      hz. using more freq points
      results in more accurate total noise values.

 **** total output noise voltage   =  4.819e-04       volts
 **** total equivalent input noise =  2.780e-03      



1****** HSPICE -- B-2008.09-SP1 32-BIT (Nov 24 2008) linux ******               
 ******  
  trimp_idcrtest

  ******  noise analysis tnom=  25.000 temp=  25.000 *****

     frequency = 6.309e+08      hz




 **** resistor squared noise voltages (sq v/hz)




 element     0:rin
       rs  9.496e-19    
      1/f    0.         
    total  9.496e-19    
       rx  1.074e+03    




 element     0:rl
       rs  1.714e-17    
      1/f    0.         
    total  1.714e-17    
       rx  4.562e+03    



 **** mosfet squared noise voltages (sq v/hz)




 element     0:mb
       rd  5.749e-23    
       rs  7.158e-21    
       id  3.979e-20    
       rx  600.0716     
       fn  1.750e-24    
    total  4.701e-20    




 element     0:m1
       rd  3.206e-23    
       rs  3.818e-21    
       id  2.575e-20    
       rx  624.9102     
       fn  6.752e-25    
    total  2.960e-20    




 element     0:m2
       rd  2.306e-21    
       rs  4.427e-21    
       id  1.324e-18    
       rx  4.478e+03    
       fn  3.472e-23    
    total  1.331e-18    




 element     0:m3
       rd  2.389e-25    
       rs  2.070e-23    
       id  6.450e-22    
       rx   88.2918     
       fn  2.196e-25    
    total  6.661e-22    




 element     0:m4
       rd  9.793e-22    
       rs  2.503e-22    
       id  1.933e-18    
       rx  4.832e+03    
       fn  6.588e-22    
    total  1.935e-18    




 element     0:ma1
       rd  4.038e-21    
       rs  2.248e-20    
       id  2.239e-17    
       rx  5.240e+03    
       fn  2.881e-20    
    total  2.245e-17    




 element     0:ma2
       rd  6.969e-22    
       rs  1.181e-19    
       id  4.123e-17    
       rx  5.235e+03    
       fn  3.195e-18    
    total  4.454e-17    




 element     0:mc0
       rd  2.361e-28    
       rs    0.         
       id    0.         
       rx    0.6120     
       fn    0.         
    total  2.425e-28    




 element     0:mc1
       rd  4.532e-26    
       rs  2.660e-27    
       id    0.         
       rx   16.6450     
       fn  7.390e-27    
    total  5.537e-26    




 element     0:mc2
       rd  1.390e-25    
       rs  1.611e-25    
       id  1.416e-22    
       rx   61.7777     
       fn  4.434e-25    
    total  1.423e-22    




 element     0:mc3
       rd  8.711e-25    
       rs  6.164e-26    
       id    0.         
       rx   76.6651     
       fn  7.947e-25    
    total  1.727e-24    




 element     0:mcx
       rd  1.918e-23    
       rs  8.456e-23    
       id  3.905e-20    
       rx  751.9174     
       fn  3.154e-23    
    total  3.919e-20    




 element     0:mcz
       rd  1.420e-22    
       rs  3.355e-24    
       id    0.         
       rx  752.2018     
       fn  3.470e-23    
    total  1.801e-22    




 element     0:mt
       rd    0.         
       rs    0.         
       id    0.         
       rx    0.         
       fn    0.         
    total    0.         




 **** total output noise voltage         = 8.846e-17       sq v/hz
                                         = 9.405e-09       v/rt hz
      transfer function value:
        v(vop)/vinn                      = 5.370e-02      
      equivalent input noise at vinn                          
                                         = 1.751e-07       /rt hz



 **** the results of the sqrt of integral (v**2 / freq)
      from fstart upto  6.309e+08      hz. using more freq points
      results in more accurate total noise values.

 **** total output noise voltage   =  4.944e-04       volts
 **** total equivalent input noise =  3.343e-03      



1****** HSPICE -- B-2008.09-SP1 32-BIT (Nov 24 2008) linux ******               
 ******  
  trimp_idcrtest

  ******  noise analysis tnom=  25.000 temp=  25.000 *****

     frequency = 7.943e+08      hz




 **** resistor squared noise voltages (sq v/hz)




 element     0:rin
       rs  5.878e-19    
      1/f    0.         
    total  5.878e-19    
       rx  844.9630     




 element     0:rl
       rs  1.533e-17    
      1/f    0.         
    total  1.533e-17    
       rx  4.315e+03    



 **** mosfet squared noise voltages (sq v/hz)




 element     0:mb
       rd  5.845e-23    
       rs  6.177e-21    
       id  2.617e-20    
       rx  486.6360     
       fn  9.144e-25    
    total  3.241e-20    




 element     0:m1
       rd  3.131e-23    
       rs  3.981e-21    
       id  1.602e-20    
       rx  492.9478     
       fn  3.337e-25    
    total  2.004e-20    




 element     0:m2
       rd  3.021e-21    
       rs  4.058e-21    
       id  1.095e-18    
       rx  4.073e+03    
       fn  2.281e-23    
    total  1.102e-18    




 element     0:m3
       rd  2.330e-25    
       rs  2.013e-23    
       id  3.967e-22    
       rx   69.2413     
       fn  1.111e-25    
    total  4.172e-22    




 element     0:m4
       rd  1.281e-21    
       rs  2.123e-22    
       id  1.595e-18    
       rx  4.389e+03    
       fn  4.470e-22    
    total  1.597e-18    




 element     0:ma1
       rd  5.477e-21    
       rs  1.927e-20    
       id  1.918e-17    
       rx  4.849e+03    
       fn  1.960e-20    
    total  1.922e-17    




 element     0:ma2
       rd  9.315e-22    
       rs  1.014e-19    
       id  3.531e-17    
       rx  4.845e+03    
       fn  2.250e-18    
    total  3.766e-17    




 element     0:mc0
       rd  1.300e-28    
       rs    0.         
       id    0.         
       rx    0.3607     
       fn    0.         
    total  1.334e-28    




 element     0:mc1
       rd  3.163e-26    
       rs  1.172e-27    
       id    0.         
       rx   11.0462     
       fn  2.585e-27    
    total  3.539e-26    




 element     0:mc2
       rd  1.073e-25    
       rs  8.086e-26    
       id  6.895e-23    
       rx   43.1102     
       fn  1.715e-25    
    total  6.930e-23    




 element     0:mc3
       rd  6.688e-25    
       rs  3.826e-26    
       id    0.         
       rx   53.3605     
       fn  3.166e-25    
    total  1.024e-24    




 element     0:mcx
       rd  1.643e-23    
       rs  6.300e-23    
       id  2.112e-20    
       rx  552.8886     
       fn  1.355e-23    
    total  2.121e-20    




 element     0:mcz
       rd  1.217e-22    
       rs  1.827e-24    
       id    0.         
       rx  553.0979     
       fn  1.542e-23    
    total  1.389e-22    




 element     0:mt
       rd    0.         
       rs    0.         
       id    0.         
       rx    0.         
       fn    0.         
    total    0.         




 **** total output noise voltage         = 7.558e-17       sq v/hz
                                         = 8.694e-09       v/rt hz
      transfer function value:
        v(vop)/vinn                      = 4.225e-02      
      equivalent input noise at vinn                          
                                         = 2.058e-07       /rt hz



 **** the results of the sqrt of integral (v**2 / freq)
      from fstart upto  7.943e+08      hz. using more freq points
      results in more accurate total noise values.

 **** total output noise voltage   =  5.077e-04       volts
 **** total equivalent input noise =  4.137e-03      



1****** HSPICE -- B-2008.09-SP1 32-BIT (Nov 24 2008) linux ******               
 ******  
  trimp_idcrtest

  ******  noise analysis tnom=  25.000 temp=  25.000 *****

     frequency = 9.999e+08      hz




 **** resistor squared noise voltages (sq v/hz)




 element     0:rin
       rs  3.478e-19    
      1/f    0.         
    total  3.478e-19    
       rx  649.9722     




 element     0:rl
       rs  1.296e-17    
      1/f    0.         
    total  1.296e-17    
       rx  3.967e+03    



 **** mosfet squared noise voltages (sq v/hz)




 element     0:mb
       rd  5.783e-23    
       rs  5.108e-21    
       id  1.683e-20    
       rx  390.2246     
       fn  4.670e-25    
    total  2.199e-20    




 element     0:m1
       rd  2.979e-23    
       rs  4.057e-21    
       id  9.724e-21    
       rx  384.0023     
       fn  1.609e-25    
    total  1.381e-20    




 element     0:m2
       rd  3.840e-21    
       rs  3.498e-21    
       id  8.786e-19    
       rx  3.648e+03    
       fn  1.454e-23    
    total  8.860e-19    




 element     0:m3
       rd  2.350e-25    
       rs  2.029e-23    
       id  2.525e-22    
       rx   55.2467     
       fn  5.813e-26    
    total  2.731e-22    




 element     0:m4
       rd  1.625e-21    
       rs  1.755e-22    
       id  1.277e-18    
       rx  3.927e+03    
       fn  2.942e-22    
    total  1.279e-18    




 element     0:ma1
       rd  7.115e-21    
       rs  1.581e-20    
       id  1.573e-17    
       rx  4.392e+03    
       fn  1.277e-20    
    total  1.577e-17    




 element     0:ma2
       rd  1.200e-21    
       rs  8.349e-20    
       id  2.896e-17    
       rx  4.387e+03    
       fn  1.518e-18    
    total  3.056e-17    




 element     0:mc0
       rd    0.         
       rs    0.         
       id    0.         
       rx    0.2207     
       fn    0.         
    total    0.         




 element     0:mc1
       rd  2.258e-26    
       rs  5.278e-28    
       id    0.         
       rx    7.4136     
       fn  9.250e-28    
    total  2.403e-26    




 element     0:mc2
       rd  8.204e-26    
       rs  4.084e-26    
       id  3.327e-23    
       rx   29.9490     
       fn  6.575e-26    
    total  3.346e-23    




 element     0:mc3
       rd  5.101e-25    
       rs  2.481e-26    
       id    0.         
       rx   37.0091     
       fn  1.252e-25    
    total  6.601e-25    




 element     0:mcx
       rd  1.352e-23    
       rs  4.692e-23    
       id  1.096e-20    
       rx  398.3769     
       fn  5.586e-24    
    total  1.103e-20    




 element     0:mcz
       rd  1.001e-22    
       rs  9.590e-25    
       id    0.         
       rx  398.5278     
       fn  6.584e-24    
    total  1.076e-22    




 element     0:mt
       rd    0.         
       rs    0.         
       id    0.         
       rx    0.         
       fn    0.         
    total    0.         




 **** total output noise voltage         = 6.185e-17       sq v/hz
                                         = 7.864e-09       v/rt hz
      transfer function value:
        v(vop)/vinn                      = 3.250e-02      
      equivalent input noise at vinn                          
                                         = 2.420e-07       /rt hz



 **** the results of the sqrt of integral (v**2 / freq)
      from fstart upto  9.999e+08      hz. using more freq points
      results in more accurate total noise values.

 **** total output noise voltage   =  5.214e-04       volts
 **** total equivalent input noise =  5.242e-03      



 ******  
  trimp_idcrtest

  ******  ac analysis tnom=  25.000 temp=  25.000 *****
   gain=  5.6178E+01    at=  1.0000E-01
               from=  1.0000E-01    to=  1.0000E+09
   gain1st=  4.8180E+01    at=  1.0000E-01
               from=  1.0000E-01    to=  1.0000E+09
   zerodb=  6.3376E+06
   phaseatdb= -1.1570E+02

          ***** job concluded
1****** HSPICE -- B-2008.09-SP1 32-BIT (Nov 24 2008) linux ******               
 ******  
  trimp_idcrtest

  ******  job statistics summary tnom=  25.000 temp=  25.000 *****

  ******  HSPICE Threads Information  ******
  Command Line Threads Count:                      0
  Available CPU Count:                             8
  Actual Model Evaluation(Load) Threads Count:     1
  Actual Solver Threads Count:                     1


  ******  Circuit Statistics  ******
  # nodes       =      50  # elements   =      35
  # resistors   =       6  # capacitors =       1  # inductors   =       0
  # mutual_inds =       0  # vccs       =       0  # vcvs        =       0
  # cccs        =       0  # ccvs       =       0  # volt_srcs   =      12
  # curr_srcs   =       2  # diodes     =       0  # bjts        =       0
  # jfets       =       0  # mosfets    =      14  # U elements  =       0
  # T elements  =       0  # W elements =       0  # B elements  =       0
  # S elements  =       0  # P elements =       0  # va device   =       0


  ******  Runtime Statistics (seconds)  ******

  analysis           time    # points   tot. iter  conv.iter
  op point           0.00           1         105
  dc sweep           0.06         101         863
  ac analysis        0.43       10001       10001
  readin             0.02
  errchk             0.01
  setup              0.00
  output             0.00


           total memory used          537  kbytes
           total cpu time            0.53 seconds
           total elapsed time        0.64 seconds
           job started at     14:57:31 01/27/2016
           job ended   at     14:57:33 01/27/2016


 Init: hspice initialization file: /usr/cad/synopsys/hspice/cur/hspice/hspice.ini
 lic: Release hspice token(s) 
