Using: /usr/bin/time -p /usr/cad/synopsys/hspice/cur/hspice/linux/hspice TrImp.sp
 ****** HSPICE -- B-2008.09-SP1 32-BIT (Nov 24 2008) linux ******               
  Copyright (C) 2008 Synopsys, Inc. All Rights Reserved.                        
  Unpublished-rights reserved under US copyright laws.
  This program is protected by law and is subject to the 
  terms and conditions of the license agreement from Synopsys.
  Use of this program is your acceptance to be bound by the 
  license agreement. HSPICE is the trademark of Synopsys, Inc.
  Input File: TrImp.sp                                                          
 lic:  
 lic: FLEXlm: v8.5b 
 lic: USER:   m103061608           HOSTNAME: ws42 
 lic: HOSTID: e41f13bfda98         PID:      23935 
 lic: Using FLEXlm license file: 
 lic: 26585@lsnctu 
 lic: Checkout 1 hspice 
 lic: License/Maintenance for hspice will expire on 14-may-2016/2015.06 
 lic: FLOATING license(s) on SERVER lsnctu 
 lic:   
 Init: read install configuration file: /usr/cad/synopsys/hspice/cur/hspice/meta.cfg
 Init: hspice initialization file: /usr/cad/synopsys/hspice/cur/hspice/hspice.ini
 .option runlvl
 .option post acout=0 accurate=1 dcon=1 converge=1 gmindc=1.0000e-12 captab=1 unwrap=1
 + ingold=1

 ***param***
 .param
 +comon		= 1.7
 +bias		= 2.4
 +bias2		= 2.4
 +supplyp	= 3.3
 +supplyn	= 0
 +diff			= 0
 ***netlist***
 ***1st stage***
 mb	b	cz	 vdd vdd pch w = 5u  l = 5u  m = 1
 m1	1	vinp b	 b	 pch w = 3u   l = 5u  m = 2
 m2	2	vinn b	 b	 pch w = 3u   l = 5u  m = 2
 m3	1	1	 vss vss nch w = 3u   l = 5u  m = 1
 m4	2	1	 vss vss nch w = 3u l = 5u    m = 1


 ***2nd stage***
 ma1 vop cz vdd vdd pch w = 8.2u l = 1u m = 1
 ma2 vop 2  vss vss nch w = 3u l = 0.4u m = 1
 ***compensation***
 *c1  2 vop 20f   *~ 60db
 c1  2 vop 100f   *~60db for rl added
 ******

 ***current mirror***
 iic cp vss dc = 200n
 mc0 cp cp vdd vdd pch w = 16u l = 1u m = 2
 mc1 c0 cp vdd vdd pch w = 5u l = 0.4u m = 2
 mc2 cn cn c0  c0  pch w = 1u l = 0.4u m = 1
 mc3 cn cn vss vss nch w = 5.1u l = 0.4u m = 3
 mcx  cz cz vdd vdd pch w = 1u l = 1u m = 1
 mcz  cz cn vss vss nch w = 10u l = 1u m = 3

 ***source***
 vd		vdd 	gnd dc supplyp
 vs		vss 	gnd dc supplyn
 vb 		b0		gnd dc bias
 vb1		b1		gnd dc bias2





 ***test***
 mt	vgt	vgt	vss	vss	nch	w = 3u   l = 5u m = 1
 *mt	vdt	vgt	vst	vst	pch w = 2.8u l = 2u m = 1
 *mt	vdt	vgt	vst	vst	pch	w = 12u   l = 5u m = 1
 vtd	vdt	gnd dc = 2.9
 vtg	vgt	gnd dc = 0.65
 vts vst gnd dc = 3.3

 .op


 ***sweep***

 ***input***
 .alter trimp_ol_woload


 **warning**  the accurate option increases  the cpu time but the results
                are more accurate.
 ***accurate option sets default value of the options: 
 lvltim= 4         dvdt= 3       relvar= 200.00m absvar= 200.00m
     ft= 200.00m relmos=  10.00m
 (used for FFT control ) fft_accurate= 1
 

 

 **warning** the following singular supplies were terminated to 1 meg resistor 
   supply       node1            node2
  vb                      0:b0               defined in subckt 0                     0:0                defined in subckt 0               
  vb1                     0:b1               defined in subckt 0                     0:0                defined in subckt 0               
  vtd                     0:vdt              defined in subckt 0                     0:0                defined in subckt 0               
  vts                     0:vst              defined in subckt 0                     0:0                defined in subckt 0               
      
  *** initial damped pseudo transient completed. ***
  *** final try started ***
1****** HSPICE -- B-2008.09-SP1 32-BIT (Nov 24 2008) linux ******               
 ******  
 ***myop_2stage_aboveth

  ******  operating point information tnom=  25.000 temp=  25.000 *****
 ***** operating point status is all       simulation time is     0.     
    node    =voltage      node    =voltage      node    =voltage

 +0:1       =   0.6945  0:2       =   0.6945  0:b       =   0.9370 
 +0:b0      =   2.4000  0:b1      =   2.4000  0:c0      =   1.4099 
 +0:cn      =   0.5399  0:cp      =   2.5979  0:cz      =   2.3018 
 +0:vdd     =   3.3000  0:vdt     =   2.9000  0:vgt     =   0.6500 
 +0:vinn    =   0.      0:vinp    =   0.      0:vop     =   3.1945 
 +0:vss     =   0.      0:vst     =   3.3000 


 maximum nodal capacitance=   4.422E-13         on node     0:vdd             

    nodal  capacitance table 

    node    =    cap      node    =    cap      node    =    cap

 +0:1       = 9.468e-14 0:2       = 1.192e-13 0:b       = 2.926e-13
 +0:b0      =   0.      0:b1      =   0.      0:c0      = 1.937e-14
 +0:cn      = 8.200e-14 0:cp      = 9.241e-14 0:cz      = 1.453e-13
 +0:vdd     = 4.422e-13 0:vdt     =   0.      0:vgt     = 2.993e-14
 +0:vinn    = 8.059e-14 0:vinp    = 8.059e-14 0:vop     = 1.264e-13
 +0:vss     = 4.143e-13 0:vst     =   0.     

 

 ****  voltage sources

 subckt                                                                    
 element  0:vd       0:vs       0:vb       0:vb1      0:vtd      0:vtg     
  volts      3.3000     0.         2.4000     2.4000     2.9000     0.6500 
  current -6.114e-06  6.329e-06 -2.400e-06 -2.400e-06 -2.900e-06 -2.146e-07
  power    2.018e-05    0.       5.760e-06  5.760e-06  8.410e-06  1.395e-07

 subckt             
 element  0:vts     
  volts      3.3000 
  current -3.300e-06
  power    1.089e-05

     total voltage source power dissipation=  5.114e-05       watts



 ***** current sources

 subckt             
 element  0:iic     
  volts      2.5979 
  current  2.000e-07
  power   -5.196e-07


     total current source power dissipation=-5.196e-07       watts


 **** mosfets


 subckt                                                                    
 element  0:mb       0:m1       0:m2       0:m3       0:m4       0:ma1     
 model    0:pch.1    0:pch.1    0:pch.1    0:nch.1    0:nch.1    0:pch.2   
 region     Saturati   Saturati   Saturati   Saturati   Saturati     Linear
  id      -8.865e-07 -4.433e-07 -4.433e-07  4.433e-07  4.433e-07 -4.277e-06
  ibs      1.781e-19  9.058e-20  9.058e-20 -7.658e-19 -7.658e-19  8.501e-19
  ibd      7.903e-13  5.810e-16  5.810e-16 -4.572e-15 -4.572e-15  7.460e-16
  vgs       -0.9982    -0.9370    -0.9370     0.6945     0.6945    -0.9982 
  vds       -2.3630    -0.2425    -0.2425     0.6945     0.6945    -0.1055 
  vbs        0.         0.         0.         0.         0.         0.     
  vth       -0.8489    -0.8605    -0.8605     0.6342     0.6342    -0.8598 
  vdsat     -0.1890    -0.1338    -0.1338     0.1068     0.1068    -0.1857 
  vod       -0.1493  -7.642e-02 -7.642e-02  6.029e-02  6.029e-02   -0.1384 
  beta     5.840e-05  6.809e-05  6.809e-05  1.057e-04  1.057e-04  4.162e-04
  gam eff    0.4095     0.3997     0.3997     0.4543     0.4543     0.3961 
  gm       8.666e-06  5.527e-06  5.527e-06  6.658e-06  6.658e-06  3.433e-05
  gds      1.823e-08  5.864e-08  5.864e-08  8.845e-09  8.845e-09  2.462e-05
  gmb      2.037e-06  1.311e-06  1.311e-06  1.979e-06  1.979e-06  7.593e-06
  cdtot    5.669e-15  1.119e-14  1.119e-14  4.434e-15  4.434e-15  2.277e-14
  cgtot    7.487e-14  8.059e-14  8.059e-14  3.953e-14  3.953e-14  3.007e-14
  cstot    9.060e-14  9.215e-14  9.215e-14  4.344e-14  4.344e-14  4.087e-14
  cbtot    3.804e-14  5.134e-14  5.134e-14  2.580e-14  2.580e-14  3.435e-14
  cgs      6.427e-14  6.380e-14  6.380e-14  2.942e-14  2.942e-14  2.178e-14
  cgd      1.004e-15  1.204e-15  1.204e-15  6.831e-16  6.831e-16  6.368e-15



 subckt                                                                    
 element  0:ma2      0:mc0      0:mc1      0:mc2      0:mc3      0:mcx     
 model    0:nch.3    0:pch.2    0:pch.3    0:pch.6    0:nch.3    0:pch.5   
 region     Saturati     Cutoff     Cutoff   Saturati     Cutoff   Saturati
  id       4.172e-06 -2.000e-07 -2.738e-07 -2.738e-07  2.738e-07 -4.770e-07
  ibs     -7.203e-18  3.946e-20  5.502e-20  6.033e-20 -4.377e-19  1.051e-19
  ibd     -1.047e-07  2.921e-15  6.056e-13  1.109e-16 -2.131e-14  1.118e-16
  vgs        0.6945    -0.7021    -0.7021    -0.8700     0.5399    -0.9982 
  vds        3.1945    -0.7021    -1.8901    -0.8700     0.5399    -0.9982 
  vbs        0.         0.         0.         0.         0.         0.     
  vth        0.6492    -0.8540    -0.7970    -0.8496     0.6695    -0.8779 
  vdsat    8.276e-02 -5.294e-02 -5.320e-02 -9.904e-02  4.405e-02   -0.1687 
  vod      4.531e-02    0.1520   9.492e-02 -2.034e-02   -0.1295    -0.1203 
  beta     1.335e-03  1.688e-03  1.063e-03  8.679e-05  7.132e-03  4.105e-05
  gam eff    0.5342     0.3965     0.4430     0.4041     0.5428     0.3861 
  gm       7.510e-05  4.250e-06  5.944e-06  4.147e-06  7.063e-06  5.249e-06
  gds      1.164e-06  3.653e-08  1.456e-07  9.768e-08  1.023e-07  4.731e-08
  gmb      2.012e-05  9.724e-07  1.314e-06  8.855e-07  2.065e-06  1.140e-06
  cdtot    3.658e-15  4.628e-14  1.211e-14  1.955e-15  2.202e-14  1.898e-15
  cgtot    3.580e-15  3.869e-14  7.444e-15  8.864e-16  1.345e-14  3.436e-15
  cstot    6.748e-15  5.887e-14  1.950e-14  2.679e-15  2.475e-14  5.527e-15
  cbtot    8.744e-15  1.181e-13  3.102e-14  4.577e-15  4.630e-14  5.310e-15
  cgs      1.907e-15  6.438e-15  2.009e-15  2.709e-16  3.479e-15  2.532e-15
  cgd      6.831e-16  6.438e-15  2.009e-15  1.993e-16  3.479e-15  1.993e-16



 subckt                        
 element  0:mcz      0:mt      
 model    0:nch.2    0:nch.1   
 region       Cutoff   Saturati
  id       4.767e-07  2.146e-07
  ibs     -7.178e-19 -3.708e-19
  ibd     -2.832e-10 -4.572e-15
  vgs        0.5399     0.6500 
  vds        2.3018     0.6500 
  vbs        0.         0.     
  vth        0.6628     0.6343 
  vdsat    4.420e-02  8.258e-02
  vod       -0.1228   1.574e-02
  beta     5.965e-03  1.059e-04
  gam eff    0.4707     0.4543 
  gm       1.189e-05  3.754e-06
  gds      6.143e-08  5.074e-09
  gmb      3.586e-06  1.122e-06
  cdtot    3.507e-14  4.462e-15
  cgtot    4.369e-14  2.547e-14
  cstot    4.685e-14  1.953e-14
  cbtot    9.835e-14  2.458e-14
  cgs      6.815e-15  1.149e-14
  cgd      6.815e-15  6.831e-16




          ***** job concluded
1****** HSPICE -- B-2008.09-SP1 32-BIT (Nov 24 2008) linux ******               
 ******  
 ***myop_2stage_aboveth

  ******  job statistics summary tnom=  25.000 temp=  25.000 *****

  ******  HSPICE Threads Information  ******
  Command Line Threads Count:                      0
  Available CPU Count:                             8
  Actual Model Evaluation(Load) Threads Count:     1
  Actual Solver Threads Count:                     1


  ******  Circuit Statistics  ******
  # nodes       =      46  # elements   =      27
  # resistors   =       4  # capacitors =       1  # inductors   =       0
  # mutual_inds =       0  # vccs       =       0  # vcvs        =       0
  # cccs        =       0  # ccvs       =       0  # volt_srcs   =       7
  # curr_srcs   =       1  # diodes     =       0  # bjts        =       0
  # jfets       =       0  # mosfets    =      14  # U elements  =       0
  # T elements  =       0  # W elements =       0  # B elements  =       0
  # S elements  =       0  # P elements =       0  # va device   =       0


  ******  Runtime Statistics (seconds)  ******

  analysis           time    # points   tot. iter  conv.iter
  op point           0.00           1          78
  readin             0.04
  errchk             0.01
  setup              0.00
  output             0.00


           total memory used          357  kbytes
           total cpu time            0.05 seconds
           total elapsed time        0.20 seconds
           job started at     15:47:00 01/27/2016
           job ended   at     15:47:00 01/27/2016


1****** HSPICE -- B-2008.09-SP1 32-BIT (Nov 24 2008) linux ******               
 ******  
  trimp_ol_woload

  ******    alter processing listing tnom=  25.000 temp=  25.000 *****
 vinp vinp gnd dc = 'comon-diff' *ac = 1
 vinn vinn gnd dc = 'comon+diff' ac = 1 *180
 .dc diff -0.5 0.5 0.01
 .ac dec 1000 0.1 1g
 *.tf v(voa) vinp
 .pz v(vop) vinn
 .probe dc i(m1) i(m2)	i(mt)
 .probe ac vp(vop)
 +gain1st=par('vdb(2)-vdb(vinp,vinn)')	par('i(m1)-i(m2)')	phase1st=par('vp(2)')
 +gainall=par('vdb(vop)-vdb(vinp,vinn)')		phaseall=par('vp(vop)')
 .meas ac gain max par('vdb(vop)-vdb(vinp,vinn)')
 .meas ac gain1st max par('vdb(2, 1)-vdb(vinp,vinn)')
 .meas ac zerodb when par('vdb(vop)-vdb(vinp,vinn)') = 0
 .meas ac phaseatdb	find par('vp(vop)') when par('vdb(vop)-vdb(vinp,vinn)') = 0

 .noise v(vop) vinn 100

 ***open loop wi loading test***
 .alter trimp_ol_wiload
 $ alter processing continues $


 **warning**  the accurate option increases  the cpu time but the results
                are more accurate.
 ***accurate option sets default value of the options: 
 lvltim= 4         dvdt= 3       relvar= 200.00m absvar= 200.00m
     ft= 200.00m relmos=  10.00m
 (used for FFT control ) fft_accurate= 1
 

 **warning** the following singular supplies were terminated to 1 meg resistor 
   supply       node1            node2
  vb                      0:b0               defined in subckt 0                     0:0                defined in subckt 0               
  vb1                     0:b1               defined in subckt 0                     0:0                defined in subckt 0               
  vtd                     0:vdt              defined in subckt 0                     0:0                defined in subckt 0               
  vts                     0:vst              defined in subckt 0                     0:0                defined in subckt 0               
      
  *** initial damped pseudo transient completed. ***
  *** final try started ***
1****** HSPICE -- B-2008.09-SP1 32-BIT (Nov 24 2008) linux ******               
 ******  
  trimp_ol_woload

  ******  operating point information tnom=  25.000 temp=  25.000 *****
 ***** operating point status is all       simulation time is     0.     
    node    =voltage      node    =voltage      node    =voltage

 +0:1       =   0.6919  0:2       =   0.6919  0:b       =   2.6288 
 +0:b0      =   2.4000  0:b1      =   2.4000  0:c0      =   1.4099 
 +0:cn      =   0.5399  0:cp      =   2.5979  0:cz      =   2.3018 
 +0:vdd     =   3.3000  0:vdt     =   2.9000  0:vgt     =   0.6500 
 +0:vinn    =   1.7000  0:vinp    =   1.7000  0:vop     =   3.2019 
 +0:vss     =   0.      0:vst     =   3.3000 


 maximum nodal capacitance=   4.444E-13         on node     0:vdd             

    nodal  capacitance table 

    node    =    cap      node    =    cap      node    =    cap

 +0:1       = 9.004e-14 0:2       = 1.155e-13 0:b       = 2.794e-13
 +0:b0      =   0.      0:b1      =   0.      0:c0      = 1.937e-14
 +0:cn      = 8.200e-14 0:cp      = 9.241e-14 0:cz      = 1.465e-13
 +0:vdd     = 4.444e-13 0:vdt     =   0.      0:vgt     = 2.993e-14
 +0:vinn    = 7.806e-14 0:vinp    = 7.806e-14 0:vop     = 1.292e-13
 +0:vss     = 4.123e-13 0:vst     =   0.     

 

 ****  voltage sources

 subckt                                                                    
 element  0:vd       0:vs       0:vb       0:vb1      0:vtd      0:vtg     
  volts      3.3000     0.         2.4000     2.4000     2.9000     0.6500 
  current -5.890e-06  6.105e-06 -2.400e-06 -2.400e-06 -2.900e-06 -2.146e-07
  power    1.944e-05    0.       5.760e-06  5.760e-06  8.410e-06  1.395e-07

 subckt                                   
 element  0:vts      0:vinp     0:vinn    
  volts      3.3000     1.7000     1.7000 
  current -3.300e-06    0.         0.     
  power    1.089e-05    0.         0.     

     total voltage source power dissipation=  5.040e-05       watts



 ***** current sources

 subckt             
 element  0:iic     
  volts      2.5979 
  current  2.000e-07
  power   -5.196e-07


     total current source power dissipation=-5.196e-07       watts


 **** mosfets


 subckt                                                                    
 element  0:mb       0:m1       0:m2       0:m3       0:m4       0:ma1     
 model    0:pch.1    0:pch.1    0:pch.1    0:nch.1    0:nch.1    0:pch.2   
 region     Saturati   Saturati   Saturati   Saturati   Saturati     Linear
  id      -8.517e-07 -4.259e-07 -4.259e-07  4.259e-07  4.259e-07 -4.088e-06
  ibs      1.711e-19  8.702e-20  8.702e-20 -7.357e-19 -7.357e-19  8.125e-19
  ibd      4.705e-16  5.910e-14  5.910e-14 -4.572e-15 -4.572e-15  7.418e-16
  vgs       -0.9982    -0.9288    -0.9288     0.6919     0.6919    -0.9982 
  vds       -0.6712    -1.9370    -1.9370     0.6919     0.6919  -9.809e-02
  vbs        0.         0.         0.         0.         0.         0.     
  vth       -0.8518    -0.8574    -0.8574     0.6342     0.6342    -0.8599 
  vdsat     -0.1867    -0.1305    -0.1305     0.1052     0.1052    -0.1856 
  vod       -0.1464  -7.143e-02 -7.143e-02  5.764e-02  5.764e-02   -0.1383 
  beta     5.837e-05  6.819e-05  6.819e-05  1.057e-04  1.057e-04  4.162e-04
  gam eff    0.4095     0.3997     0.3997     0.4543     0.4543     0.3961 
  gm       8.410e-06  5.420e-06  5.420e-06  6.461e-06  6.461e-06  3.215e-05
  gds      2.667e-08  1.230e-08  1.230e-08  8.588e-09  8.588e-09  2.676e-05
  gmb      1.977e-06  1.288e-06  1.288e-06  1.921e-06  1.921e-06  7.123e-06
  cdtot    7.729e-15  7.613e-15  7.613e-15  4.435e-15  4.435e-15  2.550e-14
  cgtot    7.487e-14  7.806e-14  7.806e-14  3.900e-14  3.900e-14  3.124e-14
  cstot    9.060e-14  8.820e-14  8.820e-14  4.254e-14  4.254e-14  4.096e-14
  cbtot    4.010e-14  4.762e-14  4.762e-14  2.576e-14  2.576e-14  3.443e-14
  cgs      6.427e-14  6.069e-14  6.069e-14  2.874e-14  2.874e-14  2.162e-14
  cgd      1.004e-15  1.204e-15  1.204e-15  6.831e-16  6.831e-16  7.957e-15



 subckt                                                                    
 element  0:ma2      0:mc0      0:mc1      0:mc2      0:mc3      0:mcx     
 model    0:nch.3    0:pch.2    0:pch.3    0:pch.6    0:nch.3    0:pch.5   
 region     Saturati     Cutoff     Cutoff   Saturati     Cutoff   Saturati
  id       3.985e-06 -2.000e-07 -2.738e-07 -2.738e-07  2.738e-07 -4.770e-07
  ibs     -6.881e-18  3.946e-20  5.502e-20  6.033e-20 -4.377e-19  1.051e-19
  ibd     -1.021e-07  2.921e-15  6.056e-13  1.109e-16 -2.131e-14  1.118e-16
  vgs        0.6919    -0.7021    -0.7021    -0.8700     0.5399    -0.9982 
  vds        3.2019    -0.7021    -1.8901    -0.8700     0.5399    -0.9982 
  vbs        0.         0.         0.         0.         0.         0.     
  vth        0.6492    -0.8540    -0.7970    -0.8496     0.6695    -0.8779 
  vdsat    8.142e-02 -5.294e-02 -5.320e-02 -9.904e-02  4.405e-02   -0.1687 
  vod      4.271e-02    0.1520   9.492e-02 -2.034e-02   -0.1295    -0.1203 
  beta     1.335e-03  1.688e-03  1.063e-03  8.679e-05  7.132e-03  4.105e-05
  gam eff    0.5342     0.3965     0.4430     0.4041     0.5428     0.3861 
  gm       7.247e-05  4.250e-06  5.944e-06  4.147e-06  7.063e-06  5.249e-06
  gds      1.125e-06  3.653e-08  1.456e-07  9.768e-08  1.023e-07  4.731e-08
  gmb      1.943e-05  9.724e-07  1.314e-06  8.855e-07  2.065e-06  1.140e-06
  cdtot    3.657e-15  4.628e-14  1.211e-14  1.955e-15  2.202e-14  1.898e-15
  cgtot    3.496e-15  3.869e-14  7.444e-15  8.864e-16  1.345e-14  3.436e-15
  cstot    6.602e-15  5.887e-14  1.950e-14  2.679e-15  2.475e-14  5.527e-15
  cbtot    8.734e-15  1.181e-13  3.102e-14  4.577e-15  4.630e-14  5.310e-15
  cgs      1.799e-15  6.438e-15  2.009e-15  2.709e-16  3.479e-15  2.532e-15
  cgd      6.831e-16  6.438e-15  2.009e-15  1.993e-16  3.479e-15  1.993e-16



 subckt                        
 element  0:mcz      0:mt      
 model    0:nch.2    0:nch.1   
 region       Cutoff   Saturati
  id       4.767e-07  2.146e-07
  ibs     -7.178e-19 -3.708e-19
  ibd     -2.832e-10 -4.572e-15
  vgs        0.5399     0.6500 
  vds        2.3018     0.6500 
  vbs        0.         0.     
  vth        0.6628     0.6343 
  vdsat    4.420e-02  8.258e-02
  vod       -0.1228   1.574e-02
  beta     5.965e-03  1.059e-04
  gam eff    0.4707     0.4543 
  gm       1.189e-05  3.754e-06
  gds      6.143e-08  5.074e-09
  gmb      3.586e-06  1.122e-06
  cdtot    3.507e-14  4.462e-15
  cgtot    4.369e-14  2.547e-14
  cstot    4.685e-14  1.953e-14
  cbtot    9.835e-14  2.458e-14
  cgs      6.815e-15  1.149e-14
  cgd      6.815e-15  6.831e-16



 ***************************************************
   ******   pole/zero analysis  
 
 
    input =  0:vinn          output = v(vop)
 
       poles (rad/sec)                 poles ( hertz)
 real            imag            real            imag            
 -54.7077k       0.              -8.70700k       0.              
 -33.8222x       0.              -5.38298x       0.              
 -51.0442x       0.              -8.12394x       0.              
 -60.5989x       0.              -9.64461x       0.              
 -68.9259x       0.              -10.9699x       0.              
 -100.880x       0.              -16.0556x       0.              
 -365.917x       0.              -58.2374x       0.              
 -2.32633g       0.              -370.246x       0.              
 
       zeros (rad/sec)                 zeros ( hertz)
 real            imag            real            imag            
 -32.1894x       0.              -5.12311x       0.              
 -49.9254x       0.              -7.94587x       0.              
 -77.8987x       0.              -12.3980x       0.              
 -94.4034x       0.              -15.0248x       0.              
 -101.030x       0.              -16.0794x       0.              
 -365.947x       0.              -58.2423x       0.              
 657.738x        0.              104.682x        0.              
 915.005x        0.              145.628x        0.              
 
  ***** constant factor = 86.9697m
1****** HSPICE -- B-2008.09-SP1 32-BIT (Nov 24 2008) linux ******               
 ******  
  trimp_ol_woload

  ******  noise analysis tnom=  25.000 temp=  25.000 *****

     frequency =   0.1000       hz




 **** mosfet squared noise voltages (sq v/hz)




 element     0:mb
       rd  5.862e-24    
       rs  8.079e-19    
       id  3.869e-15    
       rx  2.030e+05    
       fn  9.776e-10    
    total  9.776e-10    




 element     0:m1
       rd  4.665e-19    
       rs  1.067e-13    
       id  8.491e-10    
       rx  1.260e+08    
       fn  1.305e-04    
    total  1.305e-04    




 element     0:m2
       rd  4.665e-19    
       rs  1.067e-13    
       id  8.491e-10    
       rx  1.260e+08    
       fn  1.305e-04    
    total  1.305e-04    




 element     0:m3
       rd  4.341e-19    
       rs  1.782e-13    
       id  1.059e-09    
       rx  1.258e+08    
       fn  7.216e-05    
    total  7.216e-05    




 element     0:m4
       rd  4.341e-19    
       rs  1.794e-13    
       id  1.066e-09    
       rx  1.262e+08    
       fn  7.263e-05    
    total  7.263e-05    




 element     0:ma1
       rd  1.002e-19    
       rs  6.101e-19    
       id  9.173e-16    
       rx  3.551e+04    
       fn  1.364e-09    
    total  1.364e-09    




 element     0:ma2
       rd  3.915e-22    
       rs  1.837e-18    
       id  7.883e-16    
       rx  3.550e+04    
       fn  9.248e-09    
    total  9.248e-09    




 element     0:mc0
       rd  2.316e-24    
       rs  4.202e-20    
       id    0.         
       rx  2.306e+05    
       fn  2.573e-10    
    total  2.573e-10    




 element     0:mc1
       rd  5.936e-23    
       rs  1.369e-19    
       id    0.         
       rx  1.662e+05    
       fn  2.199e-09    
    total  2.199e-09    




 element     0:mc2
       rd  3.138e-25    
       rs  7.231e-22    
       id  6.305e-19    
       rx  5.705e+03    
       fn  1.270e-11    
    total  1.270e-11    




 element     0:mc3
       rd  8.344e-24    
       rs  7.999e-20    
       id    0.         
       rx  1.720e+05    
       fn  4.049e-10    
    total  4.049e-10    




 element     0:mcx
       rd  2.009e-23    
       rs  3.899e-19    
       id  6.046e-16    
       rx  1.056e+05    
       fn  2.661e-09    
    total  2.661e-09    




 element     0:mcz
       rd    0.         
       rs  4.403e-20    
       id    0.         
       rx  1.056e+05    
       fn  8.703e-11    
    total  8.703e-11    




 element     0:mt
       rd    0.         
       rs    0.         
       id    0.         
       rx    0.         
       fn    0.         
    total    0.         




 **** total output noise voltage         = 4.057e-04       sq v/hz
                                         = 2.014e-02       v/rt hz
      transfer function value:
        v(vop)/vinn                      = 683.0460       
      equivalent input noise at vinn                          
                                         = 2.949e-05       /rt hz



 **** the results of the sqrt of integral (v**2 / freq)
      from fstart upto    0.1000       hz. using more freq points
      results in more accurate total noise values.

 **** total output noise voltage   =    0.            volts
 **** total equivalent input noise =    0.           



1****** HSPICE -- B-2008.09-SP1 32-BIT (Nov 24 2008) linux ******               
 ******  
  trimp_ol_woload

  ******  noise analysis tnom=  25.000 temp=  25.000 *****

     frequency =   0.1259       hz




 **** mosfet squared noise voltages (sq v/hz)




 element     0:mb
       rd  5.862e-24    
       rs  8.079e-19    
       id  3.869e-15    
       rx  2.030e+05    
       fn  7.765e-10    
    total  7.765e-10    




 element     0:m1
       rd  4.665e-19    
       rs  1.067e-13    
       id  8.491e-10    
       rx  1.260e+08    
       fn  1.036e-04    
    total  1.036e-04    




 element     0:m2
       rd  4.665e-19    
       rs  1.067e-13    
       id  8.491e-10    
       rx  1.260e+08    
       fn  1.036e-04    
    total  1.036e-04    




 element     0:m3
       rd  4.341e-19    
       rs  1.782e-13    
       id  1.059e-09    
       rx  1.258e+08    
       fn  5.933e-05    
    total  5.934e-05    




 element     0:m4
       rd  4.341e-19    
       rs  1.794e-13    
       id  1.066e-09    
       rx  1.262e+08    
       fn  5.972e-05    
    total  5.972e-05    




 element     0:ma1
       rd  1.002e-19    
       rs  6.101e-19    
       id  9.173e-16    
       rx  3.551e+04    
       fn  1.084e-09    
    total  1.084e-09    




 element     0:ma2
       rd  3.915e-22    
       rs  1.837e-18    
       id  7.883e-16    
       rx  3.550e+04    
       fn  7.604e-09    
    total  7.604e-09    




 element     0:mc0
       rd  2.316e-24    
       rs  4.202e-20    
       id    0.         
       rx  2.306e+05    
       fn  2.044e-10    
    total  2.044e-10    




 element     0:mc1
       rd  5.936e-23    
       rs  1.369e-19    
       id    0.         
       rx  1.662e+05    
       fn  1.747e-09    
    total  1.747e-09    




 element     0:mc2
       rd  3.138e-25    
       rs  7.231e-22    
       id  6.305e-19    
       rx  5.705e+03    
       fn  1.009e-11    
    total  1.009e-11    




 element     0:mc3
       rd  8.344e-24    
       rs  7.999e-20    
       id    0.         
       rx  1.720e+05    
       fn  3.329e-10    
    total  3.329e-10    




 element     0:mcx
       rd  2.009e-23    
       rs  3.899e-19    
       id  6.046e-16    
       rx  1.056e+05    
       fn  2.114e-09    
    total  2.114e-09    




 element     0:mcz
       rd    0.         
       rs  4.403e-20    
       id    0.         
       rx  1.056e+05    
       fn  7.156e-11    
    total  7.156e-11    




 element     0:mt
       rd    0.         
       rs    0.         
       id    0.         
       rx    0.         
       fn    0.         
    total    0.         




 **** total output noise voltage         = 3.263e-04       sq v/hz
                                         = 1.806e-02       v/rt hz
      transfer function value:
        v(vop)/vinn                      = 683.0460       
      equivalent input noise at vinn                          
                                         = 2.645e-05       /rt hz



 **** the results of the sqrt of integral (v**2 / freq)
      from fstart upto    0.1259       hz. using more freq points
      results in more accurate total noise values.

 **** total output noise voltage   =  3.066e-03       volts
 **** total equivalent input noise =  4.489e-06      



1****** HSPICE -- B-2008.09-SP1 32-BIT (Nov 24 2008) linux ******               
 ******  
  trimp_ol_woload

  ******  noise analysis tnom=  25.000 temp=  25.000 *****

     frequency =   0.1585       hz




 **** mosfet squared noise voltages (sq v/hz)




 element     0:mb
       rd  5.862e-24    
       rs  8.079e-19    
       id  3.869e-15    
       rx  2.030e+05    
       fn  6.168e-10    
    total  6.168e-10    




 element     0:m1
       rd  4.665e-19    
       rs  1.067e-13    
       id  8.491e-10    
       rx  1.260e+08    
       fn  8.232e-05    
    total  8.232e-05    




 element     0:m2
       rd  4.665e-19    
       rs  1.067e-13    
       id  8.491e-10    
       rx  1.260e+08    
       fn  8.232e-05    
    total  8.232e-05    




 element     0:m3
       rd  4.341e-19    
       rs  1.782e-13    
       id  1.059e-09    
       rx  1.258e+08    
       fn  4.879e-05    
    total  4.879e-05    




 element     0:m4
       rd  4.341e-19    
       rs  1.794e-13    
       id  1.066e-09    
       rx  1.262e+08    
       fn  4.910e-05    
    total  4.910e-05    




 element     0:ma1
       rd  1.002e-19    
       rs  6.101e-19    
       id  9.173e-16    
       rx  3.551e+04    
       fn  8.607e-10    
    total  8.607e-10    




 element     0:ma2
       rd  3.915e-22    
       rs  1.837e-18    
       id  7.883e-16    
       rx  3.550e+04    
       fn  6.252e-09    
    total  6.252e-09    




 element     0:mc0
       rd  2.316e-24    
       rs  4.202e-20    
       id    0.         
       rx  2.306e+05    
       fn  1.624e-10    
    total  1.624e-10    




 element     0:mc1
       rd  5.936e-23    
       rs  1.369e-19    
       id    0.         
       rx  1.662e+05    
       fn  1.387e-09    
    total  1.387e-09    




 element     0:mc2
       rd  3.138e-25    
       rs  7.231e-22    
       id  6.305e-19    
       rx  5.705e+03    
       fn  8.014e-12    
    total  8.014e-12    




 element     0:mc3
       rd  8.344e-24    
       rs  7.999e-20    
       id    0.         
       rx  1.720e+05    
       fn  2.738e-10    
    total  2.738e-10    




 element     0:mcx
       rd  2.009e-23    
       rs  3.899e-19    
       id  6.046e-16    
       rx  1.056e+05    
       fn  1.679e-09    
    total  1.679e-09    




 element     0:mcz
       rd    0.         
       rs  4.403e-20    
       id    0.         
       rx  1.056e+05    
       fn  5.884e-11    
    total  5.884e-11    




 element     0:mt
       rd    0.         
       rs    0.         
       id    0.         
       rx    0.         
       fn    0.         
    total    0.         




 **** total output noise voltage         = 2.625e-04       sq v/hz
                                         = 1.620e-02       v/rt hz
      transfer function value:
        v(vop)/vinn                      = 683.0460       
      equivalent input noise at vinn                          
                                         = 2.372e-05       /rt hz



 **** the results of the sqrt of integral (v**2 / freq)
      from fstart upto    0.1585       hz. using more freq points
      results in more accurate total noise values.

 **** total output noise voltage   =  4.350e-03       volts
 **** total equivalent input noise =  6.368e-06      



1****** HSPICE -- B-2008.09-SP1 32-BIT (Nov 24 2008) linux ******               
 ******  
  trimp_ol_woload

  ******  noise analysis tnom=  25.000 temp=  25.000 *****

     frequency =   0.1995       hz




 **** mosfet squared noise voltages (sq v/hz)




 element     0:mb
       rd  5.862e-24    
       rs  8.079e-19    
       id  3.869e-15    
       rx  2.030e+05    
       fn  4.900e-10    
    total  4.900e-10    




 element     0:m1
       rd  4.665e-19    
       rs  1.067e-13    
       id  8.491e-10    
       rx  1.260e+08    
       fn  6.539e-05    
    total  6.539e-05    




 element     0:m2
       rd  4.665e-19    
       rs  1.067e-13    
       id  8.491e-10    
       rx  1.260e+08    
       fn  6.539e-05    
    total  6.539e-05    




 element     0:m3
       rd  4.341e-19    
       rs  1.782e-13    
       id  1.059e-09    
       rx  1.258e+08    
       fn  4.012e-05    
    total  4.012e-05    




 element     0:m4
       rd  4.341e-19    
       rs  1.794e-13    
       id  1.066e-09    
       rx  1.262e+08    
       fn  4.038e-05    
    total  4.038e-05    




 element     0:ma1
       rd  1.002e-19    
       rs  6.101e-19    
       id  9.173e-16    
       rx  3.551e+04    
       fn  6.836e-10    
    total  6.836e-10    




 element     0:ma2
       rd  3.915e-22    
       rs  1.837e-18    
       id  7.883e-16    
       rx  3.550e+04    
       fn  5.141e-09    
    total  5.141e-09    




 element     0:mc0
       rd  2.316e-24    
       rs  4.202e-20    
       id    0.         
       rx  2.306e+05    
       fn  1.290e-10    
    total  1.290e-10    




 element     0:mc1
       rd  5.936e-23    
       rs  1.369e-19    
       id    0.         
       rx  1.662e+05    
       fn  1.102e-09    
    total  1.102e-09    




 element     0:mc2
       rd  3.138e-25    
       rs  7.231e-22    
       id  6.305e-19    
       rx  5.705e+03    
       fn  6.366e-12    
    total  6.366e-12    




 element     0:mc3
       rd  8.344e-24    
       rs  7.999e-20    
       id    0.         
       rx  1.720e+05    
       fn  2.251e-10    
    total  2.251e-10    




 element     0:mcx
       rd  2.009e-23    
       rs  3.899e-19    
       id  6.046e-16    
       rx  1.056e+05    
       fn  1.334e-09    
    total  1.334e-09    




 element     0:mcz
       rd    0.         
       rs  4.403e-20    
       id    0.         
       rx  1.056e+05    
       fn  4.838e-11    
    total  4.838e-11    




 element     0:mt
       rd    0.         
       rs    0.         
       id    0.         
       rx    0.         
       fn    0.         
    total    0.         




 **** total output noise voltage         = 2.113e-04       sq v/hz
                                         = 1.454e-02       v/rt hz
      transfer function value:
        v(vop)/vinn                      = 683.0460       
      equivalent input noise at vinn                          
                                         = 2.128e-05       /rt hz



 **** the results of the sqrt of integral (v**2 / freq)
      from fstart upto    0.1995       hz. using more freq points
      results in more accurate total noise values.

 **** total output noise voltage   =  5.345e-03       volts
 **** total equivalent input noise =  7.825e-06      



1****** HSPICE -- B-2008.09-SP1 32-BIT (Nov 24 2008) linux ******               
 ******  
  trimp_ol_woload

  ******  noise analysis tnom=  25.000 temp=  25.000 *****

     frequency =   0.2512       hz




 **** mosfet squared noise voltages (sq v/hz)




 element     0:mb
       rd  5.862e-24    
       rs  8.079e-19    
       id  3.869e-15    
       rx  2.030e+05    
       fn  3.892e-10    
    total  3.892e-10    




 element     0:m1
       rd  4.665e-19    
       rs  1.067e-13    
       id  8.491e-10    
       rx  1.260e+08    
       fn  5.194e-05    
    total  5.194e-05    




 element     0:m2
       rd  4.665e-19    
       rs  1.067e-13    
       id  8.491e-10    
       rx  1.260e+08    
       fn  5.194e-05    
    total  5.194e-05    




 element     0:m3
       rd  4.341e-19    
       rs  1.782e-13    
       id  1.059e-09    
       rx  1.258e+08    
       fn  3.298e-05    
    total  3.299e-05    




 element     0:m4
       rd  4.341e-19    
       rs  1.794e-13    
       id  1.066e-09    
       rx  1.262e+08    
       fn  3.320e-05    
    total  3.320e-05    




 element     0:ma1
       rd  1.002e-19    
       rs  6.101e-19    
       id  9.173e-16    
       rx  3.551e+04    
       fn  5.430e-10    
    total  5.430e-10    




 element     0:ma2
       rd  3.915e-22    
       rs  1.837e-18    
       id  7.883e-16    
       rx  3.550e+04    
       fn  4.227e-09    
    total  4.227e-09    




 element     0:mc0
       rd  2.316e-24    
       rs  4.202e-20    
       id    0.         
       rx  2.306e+05    
       fn  1.024e-10    
    total  1.024e-10    




 element     0:mc1
       rd  5.936e-23    
       rs  1.369e-19    
       id    0.         
       rx  1.662e+05    
       fn  8.754e-10    
    total  8.754e-10    




 element     0:mc2
       rd  3.138e-25    
       rs  7.231e-22    
       id  6.305e-19    
       rx  5.705e+03    
       fn  5.056e-12    
    total  5.056e-12    




 element     0:mc3
       rd  8.344e-24    
       rs  7.999e-20    
       id    0.         
       rx  1.720e+05    
       fn  1.851e-10    
    total  1.851e-10    




 element     0:mcx
       rd  2.009e-23    
       rs  3.899e-19    
       id  6.046e-16    
       rx  1.056e+05    
       fn  1.059e-09    
    total  1.059e-09    




 element     0:mcz
       rd    0.         
       rs  4.403e-20    
       id    0.         
       rx  1.056e+05    
       fn  3.978e-11    
    total  3.978e-11    




 element     0:mt
       rd    0.         
       rs    0.         
       id    0.         
       rx    0.         
       fn    0.         
    total    0.         




 **** total output noise voltage         = 1.701e-04       sq v/hz
                                         = 1.304e-02       v/rt hz
      transfer function value:
        v(vop)/vinn                      = 683.0460       
      equivalent input noise at vinn                          
                                         = 1.909e-05       /rt hz



 **** the results of the sqrt of integral (v**2 / freq)
      from fstart upto    0.2512       hz. using more freq points
      results in more accurate total noise values.

 **** total output noise voltage   =  6.192e-03       volts
 **** total equivalent input noise =  9.065e-06      



1****** HSPICE -- B-2008.09-SP1 32-BIT (Nov 24 2008) linux ******               
 ******  
  trimp_ol_woload

  ******  noise analysis tnom=  25.000 temp=  25.000 *****

     frequency =   0.3162       hz




 **** mosfet squared noise voltages (sq v/hz)




 element     0:mb
       rd  5.862e-24    
       rs  8.079e-19    
       id  3.869e-15    
       rx  2.030e+05    
       fn  3.091e-10    
    total  3.092e-10    




 element     0:m1
       rd  4.665e-19    
       rs  1.067e-13    
       id  8.491e-10    
       rx  1.260e+08    
       fn  4.126e-05    
    total  4.126e-05    




 element     0:m2
       rd  4.665e-19    
       rs  1.067e-13    
       id  8.491e-10    
       rx  1.260e+08    
       fn  4.126e-05    
    total  4.126e-05    




 element     0:m3
       rd  4.341e-19    
       rs  1.782e-13    
       id  1.059e-09    
       rx  1.258e+08    
       fn  2.712e-05    
    total  2.712e-05    




 element     0:m4
       rd  4.341e-19    
       rs  1.794e-13    
       id  1.066e-09    
       rx  1.262e+08    
       fn  2.730e-05    
    total  2.730e-05    




 element     0:ma1
       rd  1.002e-19    
       rs  6.101e-19    
       id  9.173e-16    
       rx  3.551e+04    
       fn  4.314e-10    
    total  4.314e-10    




 element     0:ma2
       rd  3.915e-22    
       rs  1.837e-18    
       id  7.883e-16    
       rx  3.550e+04    
       fn  3.476e-09    
    total  3.476e-09    




 element     0:mc0
       rd  2.316e-24    
       rs  4.202e-20    
       id    0.         
       rx  2.306e+05    
       fn  8.137e-11    
    total  8.137e-11    




 element     0:mc1
       rd  5.936e-23    
       rs  1.369e-19    
       id    0.         
       rx  1.662e+05    
       fn  6.954e-10    
    total  6.954e-10    




 element     0:mc2
       rd  3.138e-25    
       rs  7.231e-22    
       id  6.305e-19    
       rx  5.705e+03    
       fn  4.016e-12    
    total  4.016e-12    




 element     0:mc3
       rd  8.344e-24    
       rs  7.999e-20    
       id    0.         
       rx  1.720e+05    
       fn  1.522e-10    
    total  1.522e-10    




 element     0:mcx
       rd  2.009e-23    
       rs  3.899e-19    
       id  6.046e-16    
       rx  1.056e+05    
       fn  8.415e-10    
    total  8.415e-10    




 element     0:mcz
       rd    0.         
       rs  4.403e-20    
       id    0.         
       rx  1.056e+05    
       fn  3.271e-11    
    total  3.271e-11    




 element     0:mt
       rd    0.         
       rs    0.         
       id    0.         
       rx    0.         
       fn    0.         
    total    0.         




 **** total output noise voltage         = 1.369e-04       sq v/hz
                                         = 1.170e-02       v/rt hz
      transfer function value:
        v(vop)/vinn                      = 683.0460       
      equivalent input noise at vinn                          
                                         = 1.713e-05       /rt hz



 **** the results of the sqrt of integral (v**2 / freq)
      from fstart upto    0.3162       hz. using more freq points
      results in more accurate total noise values.

 **** total output noise voltage   =  6.946e-03       volts
 **** total equivalent input noise =  1.017e-05      



1****** HSPICE -- B-2008.09-SP1 32-BIT (Nov 24 2008) linux ******               
 ******  
  trimp_ol_woload

  ******  noise analysis tnom=  25.000 temp=  25.000 *****

     frequency =   0.3981       hz




 **** mosfet squared noise voltages (sq v/hz)




 element     0:mb
       rd  5.862e-24    
       rs  8.079e-19    
       id  3.869e-15    
       rx  2.030e+05    
       fn  2.456e-10    
    total  2.456e-10    




 element     0:m1
       rd  4.665e-19    
       rs  1.067e-13    
       id  8.491e-10    
       rx  1.260e+08    
       fn  3.277e-05    
    total  3.277e-05    




 element     0:m2
       rd  4.665e-19    
       rs  1.067e-13    
       id  8.491e-10    
       rx  1.260e+08    
       fn  3.277e-05    
    total  3.277e-05    




 element     0:m3
       rd  4.341e-19    
       rs  1.782e-13    
       id  1.059e-09    
       rx  1.258e+08    
       fn  2.230e-05    
    total  2.230e-05    




 element     0:m4
       rd  4.341e-19    
       rs  1.794e-13    
       id  1.066e-09    
       rx  1.262e+08    
       fn  2.244e-05    
    total  2.245e-05    




 element     0:ma1
       rd  1.002e-19    
       rs  6.101e-19    
       id  9.173e-16    
       rx  3.551e+04    
       fn  3.426e-10    
    total  3.426e-10    




 element     0:ma2
       rd  3.915e-22    
       rs  1.837e-18    
       id  7.883e-16    
       rx  3.550e+04    
       fn  2.858e-09    
    total  2.858e-09    




 element     0:mc0
       rd  2.316e-24    
       rs  4.202e-20    
       id    0.         
       rx  2.306e+05    
       fn  6.463e-11    
    total  6.463e-11    




 element     0:mc1
       rd  5.936e-23    
       rs  1.369e-19    
       id    0.         
       rx  1.662e+05    
       fn  5.523e-10    
    total  5.523e-10    




 element     0:mc2
       rd  3.138e-25    
       rs  7.231e-22    
       id  6.305e-19    
       rx  5.705e+03    
       fn  3.190e-12    
    total  3.190e-12    




 element     0:mc3
       rd  8.344e-24    
       rs  7.999e-20    
       id    0.         
       rx  1.720e+05    
       fn  1.251e-10    
    total  1.251e-10    




 element     0:mcx
       rd  2.009e-23    
       rs  3.899e-19    
       id  6.046e-16    
       rx  1.056e+05    
       fn  6.684e-10    
    total  6.684e-10    




 element     0:mcz
       rd    0.         
       rs  4.403e-20    
       id    0.         
       rx  1.056e+05    
       fn  2.690e-11    
    total  2.690e-11    




 element     0:mt
       rd    0.         
       rs    0.         
       id    0.         
       rx    0.         
       fn    0.         
    total    0.         




 **** total output noise voltage         = 1.103e-04       sq v/hz
                                         = 1.050e-02       v/rt hz
      transfer function value:
        v(vop)/vinn                      = 683.0460       
      equivalent input noise at vinn                          
                                         = 1.538e-05       /rt hz



 **** the results of the sqrt of integral (v**2 / freq)
      from fstart upto    0.3981       hz. using more freq points
      results in more accurate total noise values.

 **** total output noise voltage   =  7.634e-03       volts
 **** total equivalent input noise =  1.118e-05      



1****** HSPICE -- B-2008.09-SP1 32-BIT (Nov 24 2008) linux ******               
 ******  
  trimp_ol_woload

  ******  noise analysis tnom=  25.000 temp=  25.000 *****

     frequency =   0.5012       hz




 **** mosfet squared noise voltages (sq v/hz)




 element     0:mb
       rd  5.862e-24    
       rs  8.079e-19    
       id  3.869e-15    
       rx  2.030e+05    
       fn  1.951e-10    
    total  1.951e-10    




 element     0:m1
       rd  4.665e-19    
       rs  1.067e-13    
       id  8.491e-10    
       rx  1.260e+08    
       fn  2.603e-05    
    total  2.603e-05    




 element     0:m2
       rd  4.665e-19    
       rs  1.067e-13    
       id  8.491e-10    
       rx  1.260e+08    
       fn  2.603e-05    
    total  2.603e-05    




 element     0:m3
       rd  4.341e-19    
       rs  1.782e-13    
       id  1.059e-09    
       rx  1.258e+08    
       fn  1.834e-05    
    total  1.834e-05    




 element     0:m4
       rd  4.341e-19    
       rs  1.794e-13    
       id  1.066e-09    
       rx  1.262e+08    
       fn  1.845e-05    
    total  1.846e-05    




 element     0:ma1
       rd  1.002e-19    
       rs  6.101e-19    
       id  9.173e-16    
       rx  3.551e+04    
       fn  2.722e-10    
    total  2.722e-10    




 element     0:ma2
       rd  3.915e-22    
       rs  1.837e-18    
       id  7.883e-16    
       rx  3.550e+04    
       fn  2.350e-09    
    total  2.350e-09    




 element     0:mc0
       rd  2.316e-24    
       rs  4.202e-20    
       id    0.         
       rx  2.306e+05    
       fn  5.134e-11    
    total  5.134e-11    




 element     0:mc1
       rd  5.936e-23    
       rs  1.369e-19    
       id    0.         
       rx  1.662e+05    
       fn  4.387e-10    
    total  4.387e-10    




 element     0:mc2
       rd  3.138e-25    
       rs  7.231e-22    
       id  6.305e-19    
       rx  5.705e+03    
       fn  2.534e-12    
    total  2.534e-12    




 element     0:mc3
       rd  8.344e-24    
       rs  7.999e-20    
       id    0.         
       rx  1.720e+05    
       fn  1.029e-10    
    total  1.029e-10    




 element     0:mcx
       rd  2.009e-23    
       rs  3.899e-19    
       id  6.046e-16    
       rx  1.056e+05    
       fn  5.309e-10    
    total  5.309e-10    




 element     0:mcz
       rd    0.         
       rs  4.403e-20    
       id    0.         
       rx  1.056e+05    
       fn  2.211e-11    
    total  2.211e-11    




 element     0:mt
       rd    0.         
       rs    0.         
       id    0.         
       rx    0.         
       fn    0.         
    total    0.         




 **** total output noise voltage         = 8.886e-05       sq v/hz
                                         = 9.427e-03       v/rt hz
      transfer function value:
        v(vop)/vinn                      = 683.0460       
      equivalent input noise at vinn                          
                                         = 1.380e-05       /rt hz



 **** the results of the sqrt of integral (v**2 / freq)
      from fstart upto    0.5012       hz. using more freq points
      results in more accurate total noise values.

 **** total output noise voltage   =  8.274e-03       volts
 **** total equivalent input noise =  1.211e-05      



1****** HSPICE -- B-2008.09-SP1 32-BIT (Nov 24 2008) linux ******               
 ******  
  trimp_ol_woload

  ******  noise analysis tnom=  25.000 temp=  25.000 *****

     frequency =   0.6310       hz




 **** mosfet squared noise voltages (sq v/hz)




 element     0:mb
       rd  5.862e-24    
       rs  8.079e-19    
       id  3.869e-15    
       rx  2.030e+05    
       fn  1.549e-10    
    total  1.549e-10    




 element     0:m1
       rd  1.166e-19    
       rs  1.067e-13    
       id  8.491e-10    
       rx  1.260e+08    
       fn  2.068e-05    
    total  2.068e-05    




 element     0:m2
       rd  4.665e-19    
       rs  1.067e-13    
       id  8.491e-10    
       rx  1.260e+08    
       fn  2.068e-05    
    total  2.068e-05    




 element     0:m3
       rd  1.085e-19    
       rs  1.782e-13    
       id  1.059e-09    
       rx  1.258e+08    
       fn  1.508e-05    
    total  1.508e-05    




 element     0:m4
       rd  4.341e-19    
       rs  1.794e-13    
       id  1.066e-09    
       rx  1.262e+08    
       fn  1.517e-05    
    total  1.518e-05    




 element     0:ma1
       rd  1.002e-19    
       rs  6.101e-19    
       id  9.173e-16    
       rx  3.551e+04    
       fn  2.162e-10    
    total  2.162e-10    




 element     0:ma2
       rd  3.915e-22    
       rs  1.837e-18    
       id  7.883e-16    
       rx  3.550e+04    
       fn  1.932e-09    
    total  1.932e-09    




 element     0:mc0
       rd  2.316e-24    
       rs  4.202e-20    
       id    0.         
       rx  2.306e+05    
       fn  4.078e-11    
    total  4.078e-11    




 element     0:mc1
       rd  5.936e-23    
       rs  1.369e-19    
       id    0.         
       rx  1.662e+05    
       fn  3.485e-10    
    total  3.485e-10    




 element     0:mc2
       rd  3.138e-25    
       rs  7.231e-22    
       id  6.305e-19    
       rx  5.705e+03    
       fn  2.013e-12    
    total  2.013e-12    




 element     0:mc3
       rd  8.344e-24    
       rs  7.999e-20    
       id    0.         
       rx  1.720e+05    
       fn  8.460e-11    
    total  8.460e-11    




 element     0:mcx
       rd  2.009e-23    
       rs  3.899e-19    
       id  6.046e-16    
       rx  1.056e+05    
       fn  4.217e-10    
    total  4.217e-10    




 element     0:mcz
       rd    0.         
       rs  4.403e-20    
       id    0.         
       rx  1.056e+05    
       fn  1.818e-11    
    total  1.818e-11    




 element     0:mt
       rd    0.         
       rs    0.         
       id    0.         
       rx    0.         
       fn    0.         
    total    0.         




 **** total output noise voltage         = 7.161e-05       sq v/hz
                                         = 8.463e-03       v/rt hz
      transfer function value:
        v(vop)/vinn                      = 683.0460       
      equivalent input noise at vinn                          
                                         = 1.239e-05       /rt hz



 **** the results of the sqrt of integral (v**2 / freq)
      from fstart upto    0.6310       hz. using more freq points
      results in more accurate total noise values.

 **** total output noise voltage   =  8.877e-03       volts
 **** total equivalent input noise =  1.300e-05      



1****** HSPICE -- B-2008.09-SP1 32-BIT (Nov 24 2008) linux ******               
 ******  
  trimp_ol_woload

  ******  noise analysis tnom=  25.000 temp=  25.000 *****

     frequency =   0.7943       hz




 **** mosfet squared noise voltages (sq v/hz)




 element     0:mb
       rd  5.862e-24    
       rs  8.079e-19    
       id  3.869e-15    
       rx  2.030e+05    
       fn  1.231e-10    
    total  1.231e-10    




 element     0:m1
       rd  1.166e-19    
       rs  1.067e-13    
       id  8.491e-10    
       rx  1.260e+08    
       fn  1.642e-05    
    total  1.643e-05    




 element     0:m2
       rd  4.665e-19    
       rs  1.067e-13    
       id  8.491e-10    
       rx  1.260e+08    
       fn  1.643e-05    
    total  1.643e-05    




 element     0:m3
       rd  1.085e-19    
       rs  1.782e-13    
       id  1.059e-09    
       rx  1.258e+08    
       fn  1.240e-05    
    total  1.240e-05    




 element     0:m4
       rd  4.341e-19    
       rs  1.794e-13    
       id  1.066e-09    
       rx  1.262e+08    
       fn  1.248e-05    
    total  1.248e-05    




 element     0:ma1
       rd  1.002e-19    
       rs  6.101e-19    
       id  9.173e-16    
       rx  3.551e+04    
       fn  1.717e-10    
    total  1.717e-10    




 element     0:ma2
       rd  3.915e-22    
       rs  1.837e-18    
       id  7.883e-16    
       rx  3.550e+04    
       fn  1.589e-09    
    total  1.589e-09    




 element     0:mc0
       rd  2.316e-24    
       rs  4.202e-20    
       id    0.         
       rx  2.306e+05    
       fn  3.239e-11    
    total  3.239e-11    




 element     0:mc1
       rd  5.936e-23    
       rs  1.369e-19    
       id    0.         
       rx  1.662e+05    
       fn  2.768e-10    
    total  2.768e-10    




 element     0:mc2
       rd  3.138e-25    
       rs  7.231e-22    
       id  6.305e-19    
       rx  5.705e+03    
       fn  1.599e-12    
    total  1.599e-12    




 element     0:mc3
       rd  8.344e-24    
       rs  7.999e-20    
       id    0.         
       rx  1.720e+05    
       fn  6.956e-11    
    total  6.956e-11    




 element     0:mcx
       rd  2.009e-23    
       rs  3.899e-19    
       id  6.046e-16    
       rx  1.056e+05    
       fn  3.350e-10    
    total  3.350e-10    




 element     0:mcz
       rd    0.         
       rs  4.403e-20    
       id    0.         
       rx  1.056e+05    
       fn  1.495e-11    
    total  1.495e-11    




 element     0:mt
       rd    0.         
       rs    0.         
       id    0.         
       rx    0.         
       fn    0.         
    total    0.         




 **** total output noise voltage         = 5.773e-05       sq v/hz
                                         = 7.598e-03       v/rt hz
      transfer function value:
        v(vop)/vinn                      = 683.0460       
      equivalent input noise at vinn                          
                                         = 1.112e-05       /rt hz



 **** the results of the sqrt of integral (v**2 / freq)
      from fstart upto    0.7943       hz. using more freq points
      results in more accurate total noise values.

 **** total output noise voltage   =  9.448e-03       volts
 **** total equivalent input noise =  1.383e-05      



1****** HSPICE -- B-2008.09-SP1 32-BIT (Nov 24 2008) linux ******               
 ******  
  trimp_ol_woload

  ******  noise analysis tnom=  25.000 temp=  25.000 *****

     frequency =   1.0000       hz




 **** mosfet squared noise voltages (sq v/hz)




 element     0:mb
       rd  5.862e-24    
       rs  8.079e-19    
       id  3.869e-15    
       rx  2.030e+05    
       fn  9.776e-11    
    total  9.777e-11    




 element     0:m1
       rd  1.166e-19    
       rs  1.067e-13    
       id  8.491e-10    
       rx  1.260e+08    
       fn  1.305e-05    
    total  1.305e-05    




 element     0:m2
       rd  1.166e-19    
       rs  1.067e-13    
       id  8.491e-10    
       rx  1.260e+08    
       fn  1.305e-05    
    total  1.305e-05    




 element     0:m3
       rd  1.085e-19    
       rs  1.782e-13    
       id  1.059e-09    
       rx  1.258e+08    
       fn  1.019e-05    
    total  1.019e-05    




 element     0:m4
       rd  1.085e-19    
       rs  1.794e-13    
       id  1.066e-09    
       rx  1.262e+08    
       fn  1.026e-05    
    total  1.026e-05    




 element     0:ma1
       rd  1.002e-19    
       rs  6.101e-19    
       id  9.173e-16    
       rx  3.551e+04    
       fn  1.364e-10    
    total  1.364e-10    




 element     0:ma2
       rd  3.915e-22    
       rs  1.837e-18    
       id  7.883e-16    
       rx  3.550e+04    
       fn  1.306e-09    
    total  1.306e-09    




 element     0:mc0
       rd  2.316e-24    
       rs  4.202e-20    
       id    0.         
       rx  2.306e+05    
       fn  2.573e-11    
    total  2.573e-11    




 element     0:mc1
       rd  5.936e-23    
       rs  1.369e-19    
       id    0.         
       rx  1.662e+05    
       fn  2.199e-10    
    total  2.199e-10    




 element     0:mc2
       rd  3.138e-25    
       rs  7.231e-22    
       id  6.305e-19    
       rx  5.705e+03    
       fn  1.270e-12    
    total  1.270e-12    




 element     0:mc3
       rd  8.344e-24    
       rs  7.999e-20    
       id    0.         
       rx  1.720e+05    
       fn  5.720e-11    
    total  5.720e-11    




 element     0:mcx
       rd  2.009e-23    
       rs  3.899e-19    
       id  6.046e-16    
       rx  1.056e+05    
       fn  2.661e-10    
    total  2.661e-10    




 element     0:mcz
       rd  1.014e-24    
       rs  4.403e-20    
       id    0.         
       rx  1.056e+05    
       fn  1.229e-11    
    total  1.229e-11    




 element     0:mt
       rd    0.         
       rs    0.         
       id    0.         
       rx    0.         
       fn    0.         
    total    0.         




 **** total output noise voltage         = 4.655e-05       sq v/hz
                                         = 6.823e-03       v/rt hz
      transfer function value:
        v(vop)/vinn                      = 683.0460       
      equivalent input noise at vinn                          
                                         = 9.989e-06       /rt hz



 **** the results of the sqrt of integral (v**2 / freq)
      from fstart upto    1.0000       hz. using more freq points
      results in more accurate total noise values.

 **** total output noise voltage   =  9.996e-03       volts
 **** total equivalent input noise =  1.463e-05      



1****** HSPICE -- B-2008.09-SP1 32-BIT (Nov 24 2008) linux ******               
 ******  
  trimp_ol_woload

  ******  noise analysis tnom=  25.000 temp=  25.000 *****

     frequency =   1.2589       hz




 **** mosfet squared noise voltages (sq v/hz)




 element     0:mb
       rd  5.862e-24    
       rs  8.079e-19    
       id  3.869e-15    
       rx  2.030e+05    
       fn  7.765e-11    
    total  7.766e-11    




 element     0:m1
       rd  4.665e-19    
       rs  1.067e-13    
       id  8.491e-10    
       rx  1.260e+08    
       fn  1.036e-05    
    total  1.036e-05    




 element     0:m2
       rd  1.166e-19    
       rs  1.067e-13    
       id  8.491e-10    
       rx  1.260e+08    
       fn  1.036e-05    
    total  1.036e-05    




 element     0:m3
       rd  1.085e-19    
       rs  1.782e-13    
       id  1.059e-09    
       rx  1.258e+08    
       fn  8.381e-06    
    total  8.382e-06    




 element     0:m4
       rd  1.085e-19    
       rs  1.794e-13    
       id  1.066e-09    
       rx  1.262e+08    
       fn  8.436e-06    
    total  8.437e-06    




 element     0:ma1
       rd  1.002e-19    
       rs  6.101e-19    
       id  9.173e-16    
       rx  3.551e+04    
       fn  1.084e-10    
    total  1.084e-10    




 element     0:ma2
       rd  3.915e-22    
       rs  1.837e-18    
       id  7.883e-16    
       rx  3.550e+04    
       fn  1.074e-09    
    total  1.074e-09    




 element     0:mc0
       rd  2.316e-24    
       rs  4.202e-20    
       id    0.         
       rx  2.306e+05    
       fn  2.044e-11    
    total  2.044e-11    




 element     0:mc1
       rd  5.936e-23    
       rs  1.369e-19    
       id    0.         
       rx  1.662e+05    
       fn  1.747e-10    
    total  1.747e-10    




 element     0:mc2
       rd  3.138e-25    
       rs  7.231e-22    
       id  6.305e-19    
       rx  5.705e+03    
       fn  1.009e-12    
    total  1.009e-12    




 element     0:mc3
       rd  8.344e-24    
       rs  7.999e-20    
       id    0.         
       rx  1.720e+05    
       fn  4.703e-11    
    total  4.703e-11    




 element     0:mcx
       rd  2.136e-23    
       rs  3.899e-19    
       id  6.046e-16    
       rx  1.056e+05    
       fn  2.114e-10    
    total  2.114e-10    




 element     0:mcz
       rd  1.014e-24    
       rs  4.403e-20    
       id    0.         
       rx  1.056e+05    
       fn  1.011e-11    
    total  1.011e-11    




 element     0:mt
       rd    0.         
       rs    0.         
       id    0.         
       rx    0.         
       fn    0.         
    total    0.         




 **** total output noise voltage         = 3.755e-05       sq v/hz
                                         = 6.128e-03       v/rt hz
      transfer function value:
        v(vop)/vinn                      = 683.0460       
      equivalent input noise at vinn                          
                                         = 8.971e-06       /rt hz



 **** the results of the sqrt of integral (v**2 / freq)
      from fstart upto    1.2589       hz. using more freq points
      results in more accurate total noise values.

 **** total output noise voltage   =  1.052e-02       volts
 **** total equivalent input noise =  1.540e-05      



1****** HSPICE -- B-2008.09-SP1 32-BIT (Nov 24 2008) linux ******               
 ******  
  trimp_ol_woload

  ******  noise analysis tnom=  25.000 temp=  25.000 *****

     frequency =   1.5849       hz




 **** mosfet squared noise voltages (sq v/hz)




 element     0:mb
       rd  5.862e-24    
       rs  8.079e-19    
       id  3.869e-15    
       rx  2.030e+05    
       fn  6.168e-11    
    total  6.169e-11    




 element     0:m1
       rd  4.665e-19    
       rs  1.067e-13    
       id  8.491e-10    
       rx  1.260e+08    
       fn  8.232e-06    
    total  8.233e-06    




 element     0:m2
       rd  4.665e-19    
       rs  1.067e-13    
       id  8.491e-10    
       rx  1.260e+08    
       fn  8.232e-06    
    total  8.233e-06    




 element     0:m3
       rd  1.085e-19    
       rs  1.782e-13    
       id  1.059e-09    
       rx  1.258e+08    
       fn  6.891e-06    
    total  6.892e-06    




 element     0:m4
       rd  1.085e-19    
       rs  1.794e-13    
       id  1.066e-09    
       rx  1.262e+08    
       fn  6.936e-06    
    total  6.937e-06    




 element     0:ma1
       rd  1.002e-19    
       rs  6.101e-19    
       id  9.173e-16    
       rx  3.551e+04    
       fn  8.607e-11    
    total  8.607e-11    




 element     0:ma2
       rd  3.915e-22    
       rs  1.837e-18    
       id  7.883e-16    
       rx  3.550e+04    
       fn  8.832e-10    
    total  8.832e-10    




 element     0:mc0
       rd  2.316e-24    
       rs  4.202e-20    
       id    0.         
       rx  2.306e+05    
       fn  1.624e-11    
    total  1.624e-11    




 element     0:mc1
       rd  4.690e-23    
       rs  1.369e-19    
       id    0.         
       rx  1.662e+05    
       fn  1.387e-10    
    total  1.387e-10    




 element     0:mc2
       rd  3.138e-25    
       rs  7.231e-22    
       id  6.305e-19    
       rx  5.705e+03    
       fn  8.014e-13    
    total  8.014e-13    




 element     0:mc3
       rd  1.877e-23    
       rs  7.999e-20    
       id    0.         
       rx  1.720e+05    
       fn  3.867e-11    
    total  3.867e-11    




 element     0:mcx
       rd  2.136e-23    
       rs  3.899e-19    
       id  6.046e-16    
       rx  1.056e+05    
       fn  1.679e-10    
    total  1.679e-10    




 element     0:mcz
       rd  1.014e-24    
       rs  4.403e-20    
       id    0.         
       rx  1.056e+05    
       fn  8.311e-12    
    total  8.311e-12    




 element     0:mt
       rd    0.         
       rs    0.         
       id    0.         
       rx    0.         
       fn    0.         
    total    0.         




 **** total output noise voltage         = 3.030e-05       sq v/hz
                                         = 5.504e-03       v/rt hz
      transfer function value:
        v(vop)/vinn                      = 683.0460       
      equivalent input noise at vinn                          
                                         = 8.058e-06       /rt hz



 **** the results of the sqrt of integral (v**2 / freq)
      from fstart upto    1.5849       hz. using more freq points
      results in more accurate total noise values.

 **** total output noise voltage   =  1.103e-02       volts
 **** total equivalent input noise =  1.615e-05      



1****** HSPICE -- B-2008.09-SP1 32-BIT (Nov 24 2008) linux ******               
 ******  
  trimp_ol_woload

  ******  noise analysis tnom=  25.000 temp=  25.000 *****

     frequency =   1.9953       hz




 **** mosfet squared noise voltages (sq v/hz)




 element     0:mb
       rd  3.298e-24    
       rs  8.079e-19    
       id  3.869e-15    
       rx  2.030e+05    
       fn  4.900e-11    
    total  4.900e-11    




 element     0:m1
       rd  4.665e-19    
       rs  1.067e-13    
       id  8.491e-10    
       rx  1.260e+08    
       fn  6.539e-06    
    total  6.540e-06    




 element     0:m2
       rd  4.665e-19    
       rs  1.067e-13    
       id  8.491e-10    
       rx  1.260e+08    
       fn  6.539e-06    
    total  6.540e-06    




 element     0:m3
       rd  4.341e-19    
       rs  1.782e-13    
       id  1.059e-09    
       rx  1.258e+08    
       fn  5.666e-06    
    total  5.667e-06    




 element     0:m4
       rd  1.085e-19    
       rs  1.794e-13    
       id  1.066e-09    
       rx  1.262e+08    
       fn  5.703e-06    
    total  5.704e-06    




 element     0:ma1
       rd  1.002e-19    
       rs  6.101e-19    
       id  9.173e-16    
       rx  3.551e+04    
       fn  6.836e-11    
    total  6.837e-11    




 element     0:ma2
       rd  3.915e-22    
       rs  1.837e-18    
       id  7.883e-16    
       rx  3.550e+04    
       fn  7.262e-10    
    total  7.262e-10    




 element     0:mc0
       rd  2.316e-24    
       rs  4.202e-20    
       id    0.         
       rx  2.306e+05    
       fn  1.290e-11    
    total  1.290e-11    




 element     0:mc1
       rd  4.690e-23    
       rs  1.369e-19    
       id    0.         
       rx  1.662e+05    
       fn  1.102e-10    
    total  1.102e-10    




 element     0:mc2
       rd  7.846e-26    
       rs  7.231e-22    
       id  6.305e-19    
       rx  5.705e+03    
       fn  6.366e-13    
    total  6.366e-13    




 element     0:mc3
       rd  8.344e-24    
       rs  7.999e-20    
       id    0.         
       rx  1.720e+05    
       fn  3.180e-11    
    total  3.180e-11    




 element     0:mcx
       rd  2.136e-23    
       rs  3.899e-19    
       id  6.046e-16    
       rx  1.056e+05    
       fn  1.334e-10    
    total  1.334e-10    




 element     0:mcz
       rd  1.014e-24    
       rs  4.403e-20    
       id    0.         
       rx  1.056e+05    
       fn  6.834e-12    
    total  6.834e-12    




 element     0:mt
       rd    0.         
       rs    0.         
       id    0.         
       rx    0.         
       fn    0.         
    total    0.         




 **** total output noise voltage         = 2.445e-05       sq v/hz
                                         = 4.945e-03       v/rt hz
      transfer function value:
        v(vop)/vinn                      = 683.0459       
      equivalent input noise at vinn                          
                                         = 7.240e-06       /rt hz



 **** the results of the sqrt of integral (v**2 / freq)
      from fstart upto    1.9953       hz. using more freq points
      results in more accurate total noise values.

 **** total output noise voltage   =  1.153e-02       volts
 **** total equivalent input noise =  1.687e-05      



1****** HSPICE -- B-2008.09-SP1 32-BIT (Nov 24 2008) linux ******               
 ******  
  trimp_ol_woload

  ******  noise analysis tnom=  25.000 temp=  25.000 *****

     frequency =   2.5119       hz




 **** mosfet squared noise voltages (sq v/hz)




 element     0:mb
       rd  5.862e-24    
       rs  8.079e-19    
       id  3.869e-15    
       rx  2.030e+05    
       fn  3.892e-11    
    total  3.892e-11    




 element     0:m1
       rd  1.166e-19    
       rs  1.067e-13    
       id  8.491e-10    
       rx  1.260e+08    
       fn  5.194e-06    
    total  5.195e-06    




 element     0:m2
       rd  1.166e-19    
       rs  1.067e-13    
       id  8.491e-10    
       rx  1.260e+08    
       fn  5.194e-06    
    total  5.195e-06    




 element     0:m3
       rd  1.085e-19    
       rs  1.782e-13    
       id  1.059e-09    
       rx  1.258e+08    
       fn  4.659e-06    
    total  4.660e-06    




 element     0:m4
       rd  1.085e-19    
       rs  1.794e-13    
       id  1.066e-09    
       rx  1.262e+08    
       fn  4.689e-06    
    total  4.690e-06    




 element     0:ma1
       rd  1.002e-19    
       rs  6.101e-19    
       id  9.173e-16    
       rx  3.551e+04    
       fn  5.430e-11    
    total  5.430e-11    




 element     0:ma2
       rd  3.915e-22    
       rs  1.837e-18    
       id  7.883e-16    
       rx  3.550e+04    
       fn  5.971e-10    
    total  5.971e-10    




 element     0:mc0
       rd  2.316e-24    
       rs  4.202e-20    
       id    0.         
       rx  2.306e+05    
       fn  1.024e-11    
    total  1.024e-11    




 element     0:mc1
       rd  5.936e-23    
       rs  1.369e-19    
       id    0.         
       rx  1.662e+05    
       fn  8.754e-11    
    total  8.754e-11    




 element     0:mc2
       rd  3.138e-25    
       rs  7.231e-22    
       id  6.305e-19    
       rx  5.705e+03    
       fn  5.056e-13    
    total  5.056e-13    




 element     0:mc3
       rd  8.344e-24    
       rs  7.999e-20    
       id    0.         
       rx  1.720e+05    
       fn  2.614e-11    
    total  2.614e-11    




 element     0:mcx
       rd  2.009e-23    
       rs  3.899e-19    
       id  6.046e-16    
       rx  1.056e+05    
       fn  1.059e-10    
    total  1.059e-10    




 element     0:mcz
       rd    0.         
       rs  4.403e-20    
       id    0.         
       rx  1.056e+05    
       fn  5.619e-12    
    total  5.619e-12    




 element     0:mt
       rd    0.         
       rs    0.         
       id    0.         
       rx    0.         
       fn    0.         
    total    0.         




 **** total output noise voltage         = 1.974e-05       sq v/hz
                                         = 4.443e-03       v/rt hz
      transfer function value:
        v(vop)/vinn                      = 683.0459       
      equivalent input noise at vinn                          
                                         = 6.505e-06       /rt hz



 **** the results of the sqrt of integral (v**2 / freq)
      from fstart upto    2.5119       hz. using more freq points
      results in more accurate total noise values.

 **** total output noise voltage   =  1.201e-02       volts
 **** total equivalent input noise =  1.758e-05      



1****** HSPICE -- B-2008.09-SP1 32-BIT (Nov 24 2008) linux ******               
 ******  
  trimp_ol_woload

  ******  noise analysis tnom=  25.000 temp=  25.000 *****

     frequency =   3.1623       hz




 **** mosfet squared noise voltages (sq v/hz)




 element     0:mb
       rd  5.862e-24    
       rs  8.079e-19    
       id  3.869e-15    
       rx  2.030e+05    
       fn  3.091e-11    
    total  3.092e-11    




 element     0:m1
       rd  1.166e-19    
       rs  1.067e-13    
       id  8.491e-10    
       rx  1.260e+08    
       fn  4.126e-06    
    total  4.127e-06    




 element     0:m2
       rd  4.665e-19    
       rs  1.067e-13    
       id  8.491e-10    
       rx  1.260e+08    
       fn  4.126e-06    
    total  4.127e-06    




 element     0:m3
       rd  1.085e-19    
       rs  1.782e-13    
       id  1.059e-09    
       rx  1.258e+08    
       fn  3.831e-06    
    total  3.832e-06    




 element     0:m4
       rd  4.341e-19    
       rs  1.794e-13    
       id  1.066e-09    
       rx  1.262e+08    
       fn  3.856e-06    
    total  3.857e-06    




 element     0:ma1
       rd  1.002e-19    
       rs  6.101e-19    
       id  9.173e-16    
       rx  3.551e+04    
       fn  4.314e-11    
    total  4.314e-11    




 element     0:ma2
       rd  3.915e-22    
       rs  1.837e-18    
       id  7.883e-16    
       rx  3.550e+04    
       fn  4.910e-10    
    total  4.910e-10    




 element     0:mc0
       rd  2.316e-24    
       rs  4.202e-20    
       id    0.         
       rx  2.306e+05    
       fn  8.137e-12    
    total  8.137e-12    




 element     0:mc1
       rd  4.690e-23    
       rs  1.369e-19    
       id    0.         
       rx  1.662e+05    
       fn  6.954e-11    
    total  6.954e-11    




 element     0:mc2
       rd  3.138e-25    
       rs  7.231e-22    
       id  6.305e-19    
       rx  5.705e+03    
       fn  4.017e-13    
    total  4.017e-13    




 element     0:mc3
       rd  1.877e-23    
       rs  7.999e-20    
       id    0.         
       rx  1.720e+05    
       fn  2.150e-11    
    total  2.150e-11    




 element     0:mcx
       rd  2.136e-23    
       rs  3.899e-19    
       id  6.046e-16    
       rx  1.056e+05    
       fn  8.415e-11    
    total  8.415e-11    




 element     0:mcz
       rd  1.014e-24    
       rs  4.403e-20    
       id    0.         
       rx  1.056e+05    
       fn  4.620e-12    
    total  4.620e-12    




 element     0:mt
       rd    0.         
       rs    0.         
       id    0.         
       rx    0.         
       fn    0.         
    total    0.         




 **** total output noise voltage         = 1.594e-05       sq v/hz
                                         = 3.993e-03       v/rt hz
      transfer function value:
        v(vop)/vinn                      = 683.0459       
      equivalent input noise at vinn                          
                                         = 5.846e-06       /rt hz



 **** the results of the sqrt of integral (v**2 / freq)
      from fstart upto    3.1623       hz. using more freq points
      results in more accurate total noise values.

 **** total output noise voltage   =  1.248e-02       volts
 **** total equivalent input noise =  1.827e-05      



1****** HSPICE -- B-2008.09-SP1 32-BIT (Nov 24 2008) linux ******               
 ******  
  trimp_ol_woload

  ******  noise analysis tnom=  25.000 temp=  25.000 *****

     frequency =   3.9811       hz




 **** mosfet squared noise voltages (sq v/hz)




 element     0:mb
       rd  5.862e-24    
       rs  8.079e-19    
       id  3.869e-15    
       rx  2.030e+05    
       fn  2.456e-11    
    total  2.456e-11    




 element     0:m1
       rd  1.166e-19    
       rs  1.067e-13    
       id  8.491e-10    
       rx  1.260e+08    
       fn  3.277e-06    
    total  3.278e-06    




 element     0:m2
       rd  1.166e-19    
       rs  1.067e-13    
       id  8.491e-10    
       rx  1.260e+08    
       fn  3.277e-06    
    total  3.278e-06    




 element     0:m3
       rd  1.085e-19    
       rs  1.782e-13    
       id  1.059e-09    
       rx  1.258e+08    
       fn  3.150e-06    
    total  3.151e-06    




 element     0:m4
       rd  1.085e-19    
       rs  1.794e-13    
       id  1.066e-09    
       rx  1.262e+08    
       fn  3.170e-06    
    total  3.171e-06    




 element     0:ma1
       rd  1.002e-19    
       rs  6.101e-19    
       id  9.173e-16    
       rx  3.551e+04    
       fn  3.426e-11    
    total  3.426e-11    




 element     0:ma2
       rd  3.915e-22    
       rs  1.837e-18    
       id  7.883e-16    
       rx  3.550e+04    
       fn  4.037e-10    
    total  4.037e-10    




 element     0:mc0
       rd  2.316e-24    
       rs  4.202e-20    
       id    0.         
       rx  2.306e+05    
       fn  6.463e-12    
    total  6.463e-12    




 element     0:mc1
       rd  5.936e-23    
       rs  1.369e-19    
       id    0.         
       rx  1.662e+05    
       fn  5.523e-11    
    total  5.523e-11    




 element     0:mc2
       rd  3.138e-25    
       rs  7.231e-22    
       id  6.305e-19    
       rx  5.705e+03    
       fn  3.190e-13    
    total  3.190e-13    




 element     0:mc3
       rd  8.344e-24    
       rs  7.999e-20    
       id    0.         
       rx  1.720e+05    
       fn  1.768e-11    
    total  1.768e-11    




 element     0:mcx
       rd  2.136e-23    
       rs  3.899e-19    
       id  6.046e-16    
       rx  1.056e+05    
       fn  6.684e-11    
    total  6.684e-11    




 element     0:mcz
       rd  1.014e-24    
       rs  4.403e-20    
       id    0.         
       rx  1.056e+05    
       fn  3.799e-12    
    total  3.799e-12    




 element     0:mt
       rd    0.         
       rs    0.         
       id    0.         
       rx    0.         
       fn    0.         
    total    0.         




 **** total output noise voltage         = 1.288e-05       sq v/hz
                                         = 3.589e-03       v/rt hz
      transfer function value:
        v(vop)/vinn                      = 683.0459       
      equivalent input noise at vinn                          
                                         = 5.254e-06       /rt hz



 **** the results of the sqrt of integral (v**2 / freq)
      from fstart upto    3.9811       hz. using more freq points
      results in more accurate total noise values.

 **** total output noise voltage   =  1.294e-02       volts
 **** total equivalent input noise =  1.894e-05      



1****** HSPICE -- B-2008.09-SP1 32-BIT (Nov 24 2008) linux ******               
 ******  
  trimp_ol_woload

  ******  noise analysis tnom=  25.000 temp=  25.000 *****

     frequency =   5.0119       hz




 **** mosfet squared noise voltages (sq v/hz)




 element     0:mb
       rd  5.862e-24    
       rs  8.079e-19    
       id  3.869e-15    
       rx  2.030e+05    
       fn  1.951e-11    
    total  1.951e-11    




 element     0:m1
       rd  1.166e-19    
       rs  1.067e-13    
       id  8.491e-10    
       rx  1.260e+08    
       fn  2.603e-06    
    total  2.604e-06    




 element     0:m2
       rd  1.166e-19    
       rs  1.067e-13    
       id  8.491e-10    
       rx  1.260e+08    
       fn  2.603e-06    
    total  2.604e-06    




 element     0:m3
       rd  1.085e-19    
       rs  1.782e-13    
       id  1.059e-09    
       rx  1.258e+08    
       fn  2.590e-06    
    total  2.591e-06    




 element     0:m4
       rd  1.085e-19    
       rs  1.794e-13    
       id  1.066e-09    
       rx  1.262e+08    
       fn  2.607e-06    
    total  2.608e-06    




 element     0:ma1
       rd  1.002e-19    
       rs  6.101e-19    
       id  9.173e-16    
       rx  3.551e+04    
       fn  2.722e-11    
    total  2.722e-11    




 element     0:ma2
       rd  3.915e-22    
       rs  1.837e-18    
       id  7.883e-16    
       rx  3.550e+04    
       fn  3.319e-10    
    total  3.319e-10    




 element     0:mc0
       rd  2.316e-24    
       rs  4.202e-20    
       id    0.         
       rx  2.306e+05    
       fn  5.134e-12    
    total  5.134e-12    




 element     0:mc1
       rd  5.936e-23    
       rs  1.369e-19    
       id    0.         
       rx  1.662e+05    
[...]
       id  9.116e-15    
       rx  3.692e+05    
       fn  4.877e-11    
    total  4.878e-11    




 element     0:m4
       rd  1.656e-24    
       rs  1.544e-18    
       id  9.168e-15    
       rx  3.702e+05    
       fn  4.909e-11    
    total  4.910e-11    




 element     0:ma1
       rd  1.948e-28    
       rs  4.008e-24    
       id  3.595e-21    
       rx   72.8267     
       fn  1.260e-15    
    total  1.260e-15    




 element     0:ma2
       rd  1.421e-27    
       rs  1.562e-23    
       id  6.387e-21    
       rx   72.7706     
       fn  6.516e-15    
    total  6.516e-15    




 element     0:mc0
       rd    0.         
       rs  3.159e-28    
       id    0.         
       rx   19.9954     
       fn  9.696e-20    
    total  9.696e-20    




 element     0:mc1
       rd    0.         
       rs  1.029e-27    
       id    0.         
       rx   14.4191     
       fn  8.286e-19    
    total  8.286e-19    




 element     0:mc2
       rd    0.         
       rs    0.         
       id  4.740e-27    
       rx    0.4947     
       fn  4.786e-21    
    total  4.786e-21    




 element     0:mc3
       rd    0.         
       rs  6.014e-28    
       id    0.         
       rx   14.9143     
       fn  2.391e-19    
    total  2.391e-19    




 element     0:mcx
       rd    0.         
       rs  2.932e-27    
       id  4.546e-24    
       rx    9.1592     
       fn  1.003e-18    
    total  1.003e-18    




 element     0:mcz
       rd    0.         
       rs  3.310e-28    
       id    0.         
       rx    9.1621     
       fn  5.138e-20    
    total  5.138e-20    




 element     0:mt
       rd    0.         
       rs    0.         
       id    0.         
       rx    0.         
       fn    0.         
    total    0.         




 **** total output noise voltage         = 2.105e-10       sq v/hz
                                         = 1.451e-05       v/rt hz
      transfer function value:
        v(vop)/iin                       = 2.007e+04      
      equivalent input noise at iin                           
                                         = 7.226e-10       /rt hz



 **** the results of the sqrt of integral (v**2 / freq)
      from fstart upto    1.9953       hz. using more freq points
      results in more accurate total noise values.

 **** total output noise voltage   =  3.381e-05       volts
 **** total equivalent input noise =  1.684e-09      



1****** HSPICE -- B-2008.09-SP1 32-BIT (Nov 24 2008) linux ******               
 ******  
  trimp_idcrtest

  ******  noise analysis tnom=  25.000 temp=  25.000 *****

     frequency =   2.5119       hz




 **** resistor squared noise voltages (sq v/hz)




 element     0:rin
       rs  3.318e-16    
      1/f    0.         
    total  3.318e-16    
       rx  2.007e+04    




 element     0:rl
       rs  3.294e-16    
      1/f    0.         
    total  3.294e-16    
       rx  2.000e+04    



 **** mosfet squared noise voltages (sq v/hz)




 element     0:mb
       rd    0.         
       rs  6.788e-24    
       id  3.251e-20    
       rx  588.6492     
       fn  3.270e-16    
    total  3.270e-16    




 element     0:m1
       rd  1.779e-24    
       rs  9.187e-19    
       id  7.310e-15    
       rx  3.698e+05    
       fn  4.471e-11    
    total  4.471e-11    




 element     0:m2
       rd  7.118e-24    
       rs  9.187e-19    
       id  7.310e-15    
       rx  3.696e+05    
       fn  4.471e-11    
    total  4.471e-11    




 element     0:m3
       rd  1.656e-24    
       rs  1.534e-18    
       id  9.116e-15    
       rx  3.692e+05    
       fn  4.010e-11    
    total  4.011e-11    




 element     0:m4
       rd  1.656e-24    
       rs  1.544e-18    
       id  9.168e-15    
       rx  3.702e+05    
       fn  4.036e-11    
    total  4.037e-11    




 element     0:ma1
       rd  1.948e-28    
       rs  4.008e-24    
       id  3.595e-21    
       rx   72.8267     
       fn  1.001e-15    
    total  1.001e-15    




 element     0:ma2
       rd  1.421e-27    
       rs  1.562e-23    
       id  6.387e-21    
       rx   72.7706     
       fn  5.358e-15    
    total  5.358e-15    




 element     0:mc0
       rd    0.         
       rs  3.159e-28    
       id    0.         
       rx   19.9954     
       fn  7.702e-20    
    total  7.702e-20    




 element     0:mc1
       rd    0.         
       rs  1.029e-27    
       id    0.         
       rx   14.4192     
       fn  6.582e-19    
    total  6.582e-19    




 element     0:mc2
       rd    0.         
       rs    0.         
       id  4.740e-27    
       rx    0.4947     
       fn  3.802e-21    
    total  3.802e-21    




 element     0:mc3
       rd    0.         
       rs  6.014e-28    
       id    0.         
       rx   14.9143     
       fn  1.966e-19    
    total  1.966e-19    




 element     0:mcx
       rd    0.         
       rs  2.932e-27    
       id  4.546e-24    
       rx    9.1592     
       fn  7.965e-19    
    total  7.965e-19    




 element     0:mcz
       rd    0.         
       rs  3.310e-28    
       id    0.         
       rx    9.1621     
       fn  4.225e-20    
    total  4.225e-20    




 element     0:mt
       rd    0.         
       rs    0.         
       id    0.         
       rx    0.         
       fn    0.         
    total    0.         




 **** total output noise voltage         = 1.699e-10       sq v/hz
                                         = 1.304e-05       v/rt hz
      transfer function value:
        v(vop)/iin                       = 2.007e+04      
      equivalent input noise at iin                           
                                         = 6.493e-10       /rt hz



 **** the results of the sqrt of integral (v**2 / freq)
      from fstart upto    2.5119       hz. using more freq points
      results in more accurate total noise values.

 **** total output noise voltage   =  3.522e-05       volts
 **** total equivalent input noise =  1.755e-09      



1****** HSPICE -- B-2008.09-SP1 32-BIT (Nov 24 2008) linux ******               
 ******  
  trimp_idcrtest

  ******  noise analysis tnom=  25.000 temp=  25.000 *****

     frequency =   3.1623       hz




 **** resistor squared noise voltages (sq v/hz)




 element     0:rin
       rs  3.318e-16    
      1/f    0.         
    total  3.318e-16    
       rx  2.007e+04    




 element     0:rl
       rs  3.294e-16    
      1/f    0.         
    total  3.294e-16    
       rx  2.000e+04    



 **** mosfet squared noise voltages (sq v/hz)




 element     0:mb
       rd    0.         
       rs  6.788e-24    
       id  3.251e-20    
       rx  588.6492     
       fn  2.597e-16    
    total  2.597e-16    




 element     0:m1
       rd  1.779e-24    
       rs  9.187e-19    
       id  7.310e-15    
       rx  3.698e+05    
       fn  3.551e-11    
    total  3.552e-11    




 element     0:m2
       rd  7.118e-24    
       rs  9.187e-19    
       id  7.310e-15    
       rx  3.696e+05    
       fn  3.551e-11    
    total  3.552e-11    




 element     0:m3
       rd  1.656e-24    
       rs  1.534e-18    
       id  9.116e-15    
       rx  3.692e+05    
       fn  3.298e-11    
    total  3.298e-11    




 element     0:m4
       rd  1.656e-24    
       rs  1.544e-18    
       id  9.168e-15    
       rx  3.702e+05    
       fn  3.319e-11    
    total  3.320e-11    




 element     0:ma1
       rd  1.948e-28    
       rs  4.008e-24    
       id  3.595e-21    
       rx   72.8267     
       fn  7.948e-16    
    total  7.948e-16    




 element     0:ma2
       rd  1.421e-27    
       rs  1.562e-23    
       id  6.387e-21    
       rx   72.7706     
       fn  4.405e-15    
    total  4.405e-15    




 element     0:mc0
       rd    0.         
       rs  3.159e-28    
       id    0.         
       rx   19.9954     
       fn  6.118e-20    
    total  6.118e-20    




 element     0:mc1
       rd    0.         
       rs  1.029e-27    
       id    0.         
       rx   14.4192     
       fn  5.228e-19    
    total  5.228e-19    




 element     0:mc2
       rd    0.         
       rs    0.         
       id  4.740e-27    
       rx    0.4947     
       fn  3.020e-21    
    total  3.020e-21    




 element     0:mc3
       rd    0.         
       rs  6.014e-28    
       id    0.         
       rx   14.9144     
       fn  1.616e-19    
    total  1.616e-19    




 element     0:mcx
       rd    0.         
       rs  2.932e-27    
       id  4.546e-24    
       rx    9.1592     
       fn  6.327e-19    
    total  6.327e-19    




 element     0:mcz
       rd    0.         
       rs  3.310e-28    
       id    0.         
       rx    9.1621     
       fn  3.474e-20    
    total  3.474e-20    




 element     0:mt
       rd    0.         
       rs    0.         
       id    0.         
       rx    0.         
       fn    0.         
    total    0.         




 **** total output noise voltage         = 1.372e-10       sq v/hz
                                         = 1.171e-05       v/rt hz
      transfer function value:
        v(vop)/iin                       = 2.007e+04      
      equivalent input noise at iin                           
                                         = 5.835e-10       /rt hz



 **** the results of the sqrt of integral (v**2 / freq)
      from fstart upto    3.1623       hz. using more freq points
      results in more accurate total noise values.

 **** total output noise voltage   =  3.660e-05       volts
 **** total equivalent input noise =  1.823e-09      



1****** HSPICE -- B-2008.09-SP1 32-BIT (Nov 24 2008) linux ******               
 ******  
  trimp_idcrtest

  ******  noise analysis tnom=  25.000 temp=  25.000 *****

     frequency =   3.9811       hz




 **** resistor squared noise voltages (sq v/hz)




 element     0:rin
       rs  3.318e-16    
      1/f    0.         
    total  3.318e-16    
       rx  2.007e+04    




 element     0:rl
       rs  3.294e-16    
      1/f    0.         
    total  3.294e-16    
       rx  2.000e+04    



 **** mosfet squared noise voltages (sq v/hz)




 element     0:mb
       rd    0.         
       rs  6.788e-24    
       id  3.251e-20    
       rx  588.6492     
       fn  2.063e-16    
    total  2.063e-16    




 element     0:m1
       rd  1.779e-24    
       rs  9.187e-19    
       id  7.310e-15    
       rx  3.698e+05    
       fn  2.821e-11    
    total  2.822e-11    




 element     0:m2
       rd  7.118e-24    
       rs  9.187e-19    
       id  7.310e-15    
       rx  3.696e+05    
       fn  2.821e-11    
    total  2.822e-11    




 element     0:m3
       rd  1.656e-24    
       rs  1.534e-18    
       id  9.116e-15    
       rx  3.692e+05    
       fn  2.711e-11    
    total  2.712e-11    




 element     0:m4
       rd  1.656e-24    
       rs  1.544e-18    
       id  9.168e-15    
       rx  3.702e+05    
       fn  2.729e-11    
    total  2.730e-11    




 element     0:ma1
       rd  1.948e-28    
       rs  4.008e-24    
       id  3.595e-21    
       rx   72.8267     
       fn  6.313e-16    
    total  6.313e-16    




 element     0:ma2
       rd  1.421e-27    
       rs  1.562e-23    
       id  6.387e-21    
       rx   72.7706     
       fn  3.622e-15    
    total  3.622e-15    




 element     0:mc0
       rd    0.         
       rs  3.159e-28    
       id    0.         
       rx   19.9955     
       fn  4.860e-20    
    total  4.860e-20    




 element     0:mc1
       rd    0.         
       rs  1.029e-27    
       id    0.         
       rx   14.4192     
       fn  4.153e-19    
    total  4.153e-19    




 element     0:mc2
       rd    0.         
       rs    0.         
       id  4.740e-27    
       rx    0.4947     
       fn  2.399e-21    
    total  2.399e-21    




 element     0:mc3
       rd    0.         
       rs  6.014e-28    
       id    0.         
       rx   14.9144     
       fn  1.329e-19    
    total  1.329e-19    




 element     0:mcx
       rd    0.         
       rs  2.932e-27    
       id  4.546e-24    
       rx    9.1592     
       fn  5.025e-19    
    total  5.025e-19    




 element     0:mcz
       rd    0.         
       rs  3.310e-28    
       id    0.         
       rx    9.1621     
       fn  2.856e-20    
    total  2.856e-20    




 element     0:mt
       rd    0.         
       rs    0.         
       id    0.         
       rx    0.         
       fn    0.         
    total    0.         




 **** total output noise voltage         = 1.109e-10       sq v/hz
                                         = 1.053e-05       v/rt hz
      transfer function value:
        v(vop)/iin                       = 2.007e+04      
      equivalent input noise at iin                           
                                         = 5.245e-10       /rt hz



 **** the results of the sqrt of integral (v**2 / freq)
      from fstart upto    3.9811       hz. using more freq points
      results in more accurate total noise values.

 **** total output noise voltage   =  3.796e-05       volts
 **** total equivalent input noise =  1.891e-09      



1****** HSPICE -- B-2008.09-SP1 32-BIT (Nov 24 2008) linux ******               
 ******  
  trimp_idcrtest

  ******  noise analysis tnom=  25.000 temp=  25.000 *****

     frequency =   5.0119       hz




 **** resistor squared noise voltages (sq v/hz)




 element     0:rin
       rs  3.318e-16    
      1/f    0.         
    total  3.318e-16    
       rx  2.007e+04    




 element     0:rl
       rs  3.294e-16    
      1/f    0.         
    total  3.294e-16    
       rx  2.000e+04    



 **** mosfet squared noise voltages (sq v/hz)




 element     0:mb
       rd    0.         
       rs  6.788e-24    
       id  3.251e-20    
       rx  588.6492     
       fn  1.639e-16    
    total  1.639e-16    




 element     0:m1
       rd  1.779e-24    
       rs  9.187e-19    
       id  7.310e-15    
       rx  3.698e+05    
       fn  2.241e-11    
    total  2.241e-11    




 element     0:m2
       rd  7.118e-24    
       rs  9.187e-19    
       id  7.310e-15    
       rx  3.696e+05    
       fn  2.241e-11    
    total  2.241e-11    




 element     0:m3
       rd  1.656e-24    
       rs  1.534e-18    
       id  9.116e-15    
       rx  3.692e+05    
       fn  2.229e-11    
    total  2.230e-11    




 element     0:m4
       rd  1.656e-24    
       rs  1.544e-18    
       id  9.168e-15    
       rx  3.702e+05    
       fn  2.244e-11    
    total  2.245e-11    




 element     0:ma1
       rd  1.948e-28    
       rs  4.008e-24    
       id  3.595e-21    
       rx   72.8267     
       fn  5.015e-16    
    total  5.015e-16    




 element     0:ma2
       rd  1.421e-27    
       rs  1.562e-23    
       id  6.387e-21    
       rx   72.7706     
       fn  2.978e-15    
    total  2.978e-15    




 element     0:mc0
       rd    0.         
       rs  3.159e-28    
       id    0.         
       rx   19.9956     
       fn  3.860e-20    
    total  3.860e-20    




 element     0:mc1
       rd    0.         
       rs  1.029e-27    
       id    0.         
       rx   14.4193     
       fn  3.299e-19    
    total  3.299e-19    




 element     0:mc2
       rd    0.         
       rs    0.         
       id  4.741e-27    
       rx    0.4947     
       fn  1.905e-21    
    total  1.905e-21    




 element     0:mc3
       rd    0.         
       rs  6.014e-28    
       id    0.         
       rx   14.9145     
       fn  1.093e-19    
    total  1.093e-19    




 element     0:mcx
       rd    0.         
       rs  2.932e-27    
       id  4.546e-24    
       rx    9.1593     
       fn  3.992e-19    
    total  3.992e-19    




 element     0:mcz
       rd    0.         
       rs  3.310e-28    
       id    0.         
       rx    9.1622     
       fn  2.349e-20    
    total  2.349e-20    




 element     0:mt
       rd    0.         
       rs    0.         
       id    0.         
       rx    0.         
       fn    0.         
    total    0.         




 **** total output noise voltage         = 8.958e-11       sq v/hz
                                         = 9.465e-06       v/rt hz
      transfer function value:
        v(vop)/iin                       = 2.007e+04      
      equivalent input noise at iin                           
                                         = 4.715e-10       /rt hz



 **** the results of the sqrt of integral (v**2 / freq)
      from fstart upto    5.0119       hz. using more freq points
      results in more accurate total noise values.

 **** total output noise voltage   =  3.928e-05       volts
 **** total equivalent input noise =  1.957e-09      



1****** HSPICE -- B-2008.09-SP1 32-BIT (Nov 24 2008) linux ******               
 ******  
  trimp_idcrtest

  ******  noise analysis tnom=  25.000 temp=  25.000 *****

     frequency =   6.3096       hz




 **** resistor squared noise voltages (sq v/hz)




 element     0:rin
       rs  3.318e-16    
      1/f    0.         
    total  3.318e-16    
       rx  2.007e+04    




 element     0:rl
       rs  3.294e-16    
      1/f    0.         
    total  3.294e-16    
       rx  2.000e+04    



 **** mosfet squared noise voltages (sq v/hz)




 element     0:mb
       rd    0.         
       rs  6.788e-24    
       id  3.251e-20    
       rx  588.6492     
       fn  1.302e-16    
    total  1.302e-16    




 element     0:m1
       rd  1.779e-24    
       rs  9.187e-19    
       id  7.310e-15    
       rx  3.698e+05    
       fn  1.780e-11    
    total  1.781e-11    




 element     0:m2
       rd  7.118e-24    
       rs  9.187e-19    
       id  7.310e-15    
       rx  3.696e+05    
       fn  1.780e-11    
    total  1.781e-11    




 element     0:m3
       rd  1.656e-24    
       rs  1.534e-18    
       id  9.116e-15    
       rx  3.692e+05    
       fn  1.833e-11    
    total  1.834e-11    




 element     0:m4
       rd  1.656e-24    
       rs  1.544e-18    
       id  9.168e-15    
       rx  3.702e+05    
       fn  1.845e-11    
    total  1.846e-11    




 element     0:ma1
       rd  1.948e-28    
       rs  4.008e-24    
       id  3.595e-21    
       rx   72.8267     
       fn  3.983e-16    
    total  3.983e-16    




 element     0:ma2
       rd  1.421e-27    
       rs  1.562e-23    
       id  6.387e-21    
       rx   72.7706     
       fn  2.449e-15    
    total  2.449e-15    




 element     0:mc0
       rd    0.         
       rs  3.159e-28    
       id    0.         
       rx   19.9957     
       fn  3.066e-20    
    total  3.066e-20    




 element     0:mc1
       rd    0.         
       rs  1.029e-27    
       id    0.         
       rx   14.4194     
       fn  2.620e-19    
    total  2.620e-19    




 element     0:mc2
       rd    0.         
       rs    0.         
       id  4.741e-27    
       rx    0.4947     
       fn  1.514e-21    
    total  1.514e-21    




 element     0:mc3
       rd    0.         
       rs  6.014e-28    
       id    0.         
       rx   14.9146     
       fn  8.985e-20    
    total  8.985e-20    




 element     0:mcx
       rd    0.         
       rs  2.932e-27    
       id  4.546e-24    
       rx    9.1593     
       fn  3.171e-19    
    total  3.171e-19    




 element     0:mcz
       rd    0.         
       rs  3.310e-28    
       id    0.         
       rx    9.1622     
       fn  1.931e-20    
    total  1.931e-20    




 element     0:mt
       rd    0.         
       rs    0.         
       id    0.         
       rx    0.         
       fn    0.         
    total    0.         




 **** total output noise voltage         = 7.241e-11       sq