$DATA1 SOURCE='HSPICE' VERSION='B-2008.09 32-BIT'
.TITLE ' *trimp_ol_wiload'
 ph_0db           ph_start         pm               temper            
 alter#            
  -81.8979        -5.685e-03         98.1078          25.0000         
    3.0000         
