Using: /usr/bin/time -p /usr/cad/synopsys/hspice/cur/hspice/linux/hspice input.sp
 ****** HSPICE -- B-2008.09-SP1 32-BIT (Nov 24 2008) linux ******               
  Copyright (C) 2008 Synopsys, Inc. All Rights Reserved.                        
  Unpublished-rights reserved under US copyright laws.
  This program is protected by law and is subject to the 
  terms and conditions of the license agreement from Synopsys.
  Use of this program is your acceptance to be bound by the 
  license agreement. HSPICE is the trademark of Synopsys, Inc.
  Input File: input.sp                                                          
 lic:  
 lic: FLEXlm: v8.5b 
 lic: USER:   m103061608           HOSTNAME: ws43 
 lic: HOSTID: 5cf3fcb5e0d8         PID:      10809 
 lic: Using FLEXlm license file: 
 lic: 26585@lsnctu 
 lic: Checkout 1 hspice 
 lic: License/Maintenance for hspice will expire on 14-may-2016/2015.06 
 lic: FLOATING license(s) on SERVER lsnctu 
 lic:   
 Init: read install configuration file: /usr/cad/synopsys/hspice/cur/hspice/meta.cfg
 Init: hspice initialization file: /usr/cad/synopsys/hspice/cur/hspice/hspice.ini
 .option runlvl
 .options abstol=1e-7 reltol=1e-7
 + post=1 captab=1 accurate=1 ingold=2
 ***netlist***

 .param wp = 20u

 *mp  out vgp vdd vdd pch w = 2u l = 1u m = 1
 mcg out vgn nwd vss nch w = 3u  l = 0.4u m = 1

 vd vdd gnd dc = 3.3
 vs vss gnd dc = 0
 *vpg vgp gnd dc = 2.42       * 1.178u

 vng vgn gnd dc = 1.8

 vn vnw gnd dc = 0.52v ac = 0.01
 mnw nwd vnw vss vss nch w = 6.6u l = 0.4u m = 1

 ***output stage***
 eo out gnd opamp ref out
 vr ref gnd dc = 2v





 .op

 *.dc vpg 3.3 2 0.01
 .dc vn 0 0.8 0.001
 .probe dc par('1/lx8(mp)') par('-i(mp)') par('v(vdp)-v(vgp)') i(mt) i(mp) i(mn)
 + gmn=lx7(mn) rdsn=lx8(mn) gmrdn=par('lx7(mn)*lx8(mn)')
 .print dc i(mp) rdsp=lx8(mp)
 .print dc i(mcg) gmn=lx7(mcg) rdsn=lx8(mcg) gmrdn=par('lx7(mcg)/lx8(mcg)')
 *.meas dc rdsval find par('1/lx8(mp)') when v(vgp)=2.5
 *.meas dc ival find par('-i(mp)') when v(vgp)=2.5
 *.ac dec 1000 10 10k
 *.noise i(eo) vn
 .end


 **warning**  the accurate option increases  the cpu time but the results
                are more accurate.
 ***accurate option sets default value of the options: 
 lvltim= 4         dvdt= 3       relvar= 200.00m absvar= 200.00m
     ft= 200.00m relmos=  10.00m
 (used for FFT control ) fft_accurate= 1
 

 **warning** could not find branch element     0:mt              
      branch - output ignored
 **warning** could not find branch element     0:mp              
      branch - output ignored
 **warning** could not find branch element     0:mn              
      branch - output ignored
 **warning** could not find branch element     0:mn              
      branch - output ignored
 **warning** could not find branch element     0:mn              
      branch - output ignored
 **warning** could not find branch element     0:mp              
      branch - output ignored
 **warning**  attempt to reference undefined node     0:vdp             
  in the definition of v(vdp,0)
   branch - output ignored

 **warning**  attempt to reference undefined node     0:vgp             
  in the definition of v(vgp,0)
   branch - output ignored

 **warning** print/plot=out0         of analysis=dc  
 contains unused outputs
 this entire output statement is ignored

 

 **warning** the following singular supplies were terminated to 1 meg resistor 
   supply       node1            node2
  vd                      0:vdd              defined in subckt 0                     0:0                defined in subckt 0               
      

 **warning** zero value is used for the non-existance
             output variable in the expression.
             you may have output variables with
             a long path name.
 ******  
 *inputstage

  ******  dc transfer curves tnom=  25.000 temp=  25.000 *****
x

        volt    current          gmn         rdsn         gmrdn   
                    mcg                                           
    0.          6.862e-12    1.337e-10    2.517e-12    5.312e+01  
  1.0000e-03    6.883e-12    1.343e-10    2.529e-12    5.312e+01  
  2.0000e-03    6.904e-12    1.350e-10    2.541e-12    5.312e+01  
  3.0000e-03    6.926e-12    1.357e-10    2.554e-12    5.312e+01  
  4.0000e-03    6.948e-12    1.364e-10    2.567e-12    5.313e+01  
  5.0000e-03    6.971e-12    1.371e-10    2.581e-12    5.313e+01  
  6.0000e-03    6.995e-12    1.379e-10    2.595e-12    5.313e+01  
  7.0000e-03    7.020e-12    1.386e-10    2.609e-12    5.313e+01  
  8.0000e-03    7.045e-12    1.394e-10    2.624e-12    5.313e+01  
  9.0000e-03    7.071e-12    1.402e-10    2.639e-12    5.314e+01  
  1.0000e-02    7.098e-12    1.411e-10    2.655e-12    5.314e+01  
  1.1000e-02    7.125e-12    1.419e-10    2.671e-12    5.314e+01  
  1.2000e-02    7.153e-12    1.428e-10    2.687e-12    5.314e+01  
  1.3000e-02    7.182e-12    1.437e-10    2.704e-12    5.315e+01  
  1.4000e-02    7.212e-12    1.447e-10    2.722e-12    5.315e+01  
  1.5000e-02    7.243e-12    1.456e-10    2.740e-12    5.315e+01  
  1.6000e-02    7.275e-12    1.466e-10    2.758e-12    5.315e+01  
  1.7000e-02    7.307e-12    1.476e-10    2.777e-12    5.316e+01  
  1.8000e-02    7.341e-12    1.487e-10    2.797e-12    5.316e+01  
  1.9000e-02    7.376e-12    1.498e-10    2.817e-12    5.316e+01  
  2.0000e-02    7.411e-12    1.509e-10    2.838e-12    5.316e+01  
  2.1000e-02    7.448e-12    1.520e-10    2.860e-12    5.317e+01  
  2.2000e-02    7.485e-12    1.532e-10    2.882e-12    5.317e+01  
  2.3000e-02    7.524e-12    1.544e-10    2.904e-12    5.317e+01  
  2.4000e-02    7.564e-12    1.557e-10    2.928e-12    5.318e+01  
  2.5000e-02    7.605e-12    1.570e-10    2.952e-12    5.318e+01  
  2.6000e-02    7.647e-12    1.583e-10    2.976e-12    5.318e+01  
  2.7000e-02    7.691e-12    1.597e-10    3.002e-12    5.319e+01  
  2.8000e-02    7.735e-12    1.611e-10    3.028e-12    5.319e+01  
  2.9000e-02    7.781e-12    1.625e-10    3.055e-12    5.319e+01  
  3.0000e-02    7.829e-12    1.640e-10    3.083e-12    5.320e+01  
  3.1000e-02    7.877e-12    1.655e-10    3.111e-12    5.320e+01  
  3.2000e-02    7.928e-12    1.671e-10    3.141e-12    5.320e+01  
  3.3000e-02    7.979e-12    1.687e-10    3.171e-12    5.321e+01  
  3.4000e-02    8.032e-12    1.704e-10    3.202e-12    5.321e+01  
  3.5000e-02    8.087e-12    1.721e-10    3.234e-12    5.321e+01  
  3.6000e-02    8.143e-12    1.739e-10    3.267e-12    5.322e+01  
  3.7000e-02    8.201e-12    1.757e-10    3.301e-12    5.322e+01  
  3.8000e-02    8.261e-12    1.776e-10    3.336e-12    5.323e+01  
  3.9000e-02    8.322e-12    1.795e-10    3.371e-12    5.323e+01  
  4.0000e-02    8.385e-12    1.815e-10    3.408e-12    5.323e+01  
  4.1000e-02    8.450e-12    1.835e-10    3.446e-12    5.324e+01  
  4.2000e-02    8.517e-12    1.856e-10    3.485e-12    5.324e+01  
  4.3000e-02    8.585e-12    1.877e-10    3.526e-12    5.325e+01  
  4.4000e-02    8.656e-12    1.900e-10    3.567e-12    5.325e+01  
  4.5000e-02    8.729e-12    1.923e-10    3.610e-12    5.326e+01  
  4.6000e-02    8.804e-12    1.946e-10    3.653e-12    5.326e+01  
  4.7000e-02    8.881e-12    1.970e-10    3.699e-12    5.327e+01  
  4.8000e-02    8.960e-12    1.995e-10    3.745e-12    5.327e+01  
  4.9000e-02    9.042e-12    2.021e-10    3.793e-12    5.328e+01  
  5.0000e-02    9.126e-12    2.047e-10    3.842e-12    5.328e+01  
  5.1000e-02    9.212e-12    2.074e-10    3.892e-12    5.329e+01  
  5.2000e-02    9.301e-12    2.102e-10    3.944e-12    5.329e+01  
  5.3000e-02    9.393e-12    2.131e-10    3.998e-12    5.330e+01  
  5.4000e-02    9.487e-12    2.160e-10    4.053e-12    5.330e+01  
  5.5000e-02    9.584e-12    2.191e-10    4.110e-12    5.331e+01  
  5.6000e-02    9.684e-12    2.222e-10    4.168e-12    5.331e+01  
  5.7000e-02    9.786e-12    2.254e-10    4.228e-12    5.332e+01  
  5.8000e-02    9.892e-12    2.288e-10    4.290e-12    5.332e+01  
  5.9000e-02    1.000e-11    2.322e-10    4.353e-12    5.333e+01  
  6.0000e-02    1.011e-11    2.357e-10    4.419e-12    5.333e+01  
  6.1000e-02    1.023e-11    2.393e-10    4.486e-12    5.334e+01  
  6.2000e-02    1.035e-11    2.430e-10    4.555e-12    5.335e+01  
  6.3000e-02    1.047e-11    2.468e-10    4.626e-12    5.335e+01  
  6.4000e-02    1.059e-11    2.508e-10    4.700e-12    5.336e+01  
  6.5000e-02    1.072e-11    2.548e-10    4.775e-12    5.336e+01  
  6.6000e-02    1.085e-11    2.590e-10    4.853e-12    5.337e+01  
  6.7000e-02    1.099e-11    2.633e-10    4.932e-12    5.338e+01  
  6.8000e-02    1.113e-11    2.677e-10    5.015e-12    5.338e+01  
  6.9000e-02    1.128e-11    2.723e-10    5.099e-12    5.339e+01  
  7.0000e-02    1.143e-11    2.769e-10    5.186e-12    5.340e+01  
  7.1000e-02    1.158e-11    2.817e-10    5.275e-12    5.340e+01  
  7.2000e-02    1.174e-11    2.867e-10    5.367e-12    5.341e+01  
  7.3000e-02    1.190e-11    2.918e-10    5.462e-12    5.342e+01  
  7.4000e-02    1.207e-11    2.970e-10    5.560e-12    5.342e+01  
  7.5000e-02    1.224e-11    3.024e-10    5.660e-12    5.343e+01  
  7.6000e-02    1.241e-11    3.080e-10    5.763e-12    5.344e+01  
  7.7000e-02    1.260e-11    3.137e-10    5.869e-12    5.344e+01  
  7.8000e-02    1.278e-11    3.196e-10    5.978e-12    5.345e+01  
  7.9000e-02    1.297e-11    3.256e-10    6.091e-12    5.346e+01  
  8.0000e-02    1.317e-11    3.318e-10    6.206e-12    5.346e+01  
  8.1000e-02    1.338e-11    3.382e-10    6.325e-12    5.347e+01  
  8.2000e-02    1.359e-11    3.448e-10    6.447e-12    5.348e+01  
  8.3000e-02    1.380e-11    3.516e-10    6.573e-12    5.349e+01  
  8.4000e-02    1.402e-11    3.586e-10    6.703e-12    5.349e+01  
  8.5000e-02    1.425e-11    3.658e-10    6.836e-12    5.350e+01  
  8.6000e-02    1.449e-11    3.731e-10    6.973e-12    5.351e+01  
  8.7000e-02    1.473e-11    3.807e-10    7.114e-12    5.352e+01  
  8.8000e-02    1.498e-11    3.886e-10    7.259e-12    5.352e+01  
  8.9000e-02    1.523e-11    3.966e-10    7.408e-12    5.353e+01  
  9.0000e-02    1.550e-11    4.049e-10    7.562e-12    5.354e+01  
  9.1000e-02    1.577e-11    4.134e-10    7.720e-12    5.355e+01  
  9.2000e-02    1.605e-11    4.222e-10    7.882e-12    5.355e+01  
  9.3000e-02    1.633e-11    4.312e-10    8.049e-12    5.356e+01  
  9.4000e-02    1.663e-11    4.405e-10    8.221e-12    5.357e+01  
  9.5000e-02    1.693e-11    4.500e-10    8.398e-12    5.358e+01  
  9.6000e-02    1.725e-11    4.598e-10    8.580e-12    5.359e+01  
  9.7000e-02    1.757e-11    4.699e-10    8.768e-12    5.359e+01  
  9.8000e-02    1.790e-11    4.803e-10    8.960e-12    5.360e+01  
  9.9000e-02    1.824e-11    4.910e-10    9.158e-12    5.361e+01  
  1.0000e-01    1.859e-11    5.020e-10    9.362e-12    5.362e+01  
  1.0100e-01    1.895e-11    5.134e-10    9.572e-12    5.363e+01  
  1.0200e-01    1.932e-11    5.250e-10    9.788e-12    5.364e+01  
  1.0300e-01    1.970e-11    5.370e-10    1.001e-11    5.364e+01  
  1.0400e-01    2.010e-11    5.493e-10    1.024e-11    5.365e+01  
  1.0500e-01    2.050e-11    5.620e-10    1.047e-11    5.366e+01  
  1.0600e-01    2.092e-11    5.751e-10    1.071e-11    5.367e+01  
  1.0700e-01    2.134e-11    5.885e-10    1.096e-11    5.368e+01  
  1.0800e-01    2.178e-11    6.023e-10    1.122e-11    5.369e+01  
  1.0900e-01    2.224e-11    6.166e-10    1.148e-11    5.369e+01  
  1.1000e-01    2.270e-11    6.312e-10    1.175e-11    5.370e+01  
  1.1100e-01    2.318e-11    6.462e-10    1.203e-11    5.371e+01  
  1.1200e-01    2.367e-11    6.617e-10    1.232e-11    5.372e+01  
  1.1300e-01    2.418e-11    6.777e-10    1.261e-11    5.373e+01  
  1.1400e-01    2.470e-11    6.941e-10    1.291e-11    5.374e+01  
  1.1500e-01    2.524e-11    7.109e-10    1.323e-11    5.375e+01  
  1.1600e-01    2.579e-11    7.283e-10    1.355e-11    5.376e+01  
  1.1700e-01    2.636e-11    7.461e-10    1.388e-11    5.376e+01  
  1.1800e-01    2.695e-11    7.645e-10    1.422e-11    5.377e+01  
  1.1900e-01    2.755e-11    7.834e-10    1.456e-11    5.378e+01  
  1.2000e-01    2.817e-11    8.028e-10    1.492e-11    5.379e+01  
  1.2100e-01    2.880e-11    8.228e-10    1.529e-11    5.380e+01  
  1.2200e-01    2.946e-11    8.434e-10    1.567e-11    5.381e+01  
  1.2300e-01    3.013e-11    8.646e-10    1.606e-11    5.382e+01  
  1.2400e-01    3.083e-11    8.863e-10    1.647e-11    5.383e+01  
  1.2500e-01    3.154e-11    9.087e-10    1.688e-11    5.384e+01  
  1.2600e-01    3.228e-11    9.318e-10    1.730e-11    5.385e+01  
  1.2700e-01    3.303e-11    9.555e-10    1.774e-11    5.385e+01  
  1.2800e-01    3.381e-11    9.799e-10    1.819e-11    5.386e+01  
  1.2900e-01    3.461e-11    1.005e-09    1.865e-11    5.387e+01  
  1.3000e-01    3.543e-11    1.031e-09    1.913e-11    5.388e+01  
  1.3100e-01    3.628e-11    1.057e-09    1.962e-11    5.389e+01  
  1.3200e-01    3.715e-11    1.085e-09    2.012e-11    5.390e+01  
  1.3300e-01    3.804e-11    1.113e-09    2.064e-11    5.391e+01  
  1.3400e-01    3.896e-11    1.142e-09    2.117e-11    5.392e+01  
  1.3500e-01    3.991e-11    1.171e-09    2.172e-11    5.393e+01  
  1.3600e-01    4.089e-11    1.202e-09    2.228e-11    5.394e+01  
  1.3700e-01    4.189e-11    1.234e-09    2.286e-11    5.395e+01  
  1.3800e-01    4.292e-11    1.266e-09    2.346e-11    5.396e+01  
  1.3900e-01    4.399e-11    1.299e-09    2.407e-11    5.396e+01  
  1.4000e-01    4.508e-11    1.334e-09    2.470e-11    5.397e+01  
  1.4100e-01    4.620e-11    1.369e-09    2.535e-11    5.398e+01  
  1.4200e-01    4.736e-11    1.405e-09    2.602e-11    5.399e+01  
  1.4300e-01    4.855e-11    1.442e-09    2.671e-11    5.400e+01  
  1.4400e-01    4.977e-11    1.481e-09    2.741e-11    5.401e+01  
  1.4500e-01    5.103e-11    1.520e-09    2.814e-11    5.402e+01  
  1.4600e-01    5.233e-11    1.561e-09    2.889e-11    5.403e+01  
  1.4700e-01    5.366e-11    1.603e-09    2.965e-11    5.404e+01  
  1.4800e-01    5.503e-11    1.646e-09    3.044e-11    5.405e+01  
  1.4900e-01    5.644e-11    1.690e-09    3.126e-11    5.406e+01  
  1.5000e-01    5.789e-11    1.735e-09    3.209e-11    5.407e+01  
  1.5100e-01    5.939e-11    1.782e-09    3.295e-11    5.408e+01  
  1.5200e-01    6.092e-11    1.830e-09    3.384e-11    5.409e+01  
  1.5300e-01    6.250e-11    1.880e-09    3.475e-11    5.410e+01  
  1.5400e-01    6.413e-11    1.931e-09    3.568e-11    5.410e+01  
  1.5500e-01    6.580e-11    1.983e-09    3.664e-11    5.411e+01  
  1.5600e-01    6.752e-11    2.037e-09    3.763e-11    5.412e+01  
  1.5700e-01    6.929e-11    2.092e-09    3.865e-11    5.413e+01  
  1.5800e-01    7.111e-11    2.149e-09    3.970e-11    5.414e+01  
  1.5900e-01    7.299e-11    2.208e-09    4.077e-11    5.415e+01  
  1.6000e-01    7.491e-11    2.268e-09    4.188e-11    5.416e+01  
  1.6100e-01    7.690e-11    2.331e-09    4.302e-11    5.417e+01  
  1.6200e-01    7.894e-11    2.394e-09    4.419e-11    5.418e+01  
  1.6300e-01    8.103e-11    2.460e-09    4.539e-11    5.419e+01  
  1.6400e-01    8.319e-11    2.528e-09    4.663e-11    5.420e+01  
  1.6500e-01    8.541e-11    2.597e-09    4.791e-11    5.421e+01  
  1.6600e-01    8.770e-11    2.669e-09    4.922e-11    5.422e+01  
  1.6700e-01    9.005e-11    2.742e-09    5.056e-11    5.423e+01  
  1.6800e-01    9.246e-11    2.818e-09    5.195e-11    5.424e+01  
  1.6900e-01    9.495e-11    2.896e-09    5.337e-11    5.424e+01  
  1.7000e-01    9.751e-11    2.976e-09    5.484e-11    5.425e+01  
  1.7100e-01    1.001e-10    3.058e-09    5.635e-11    5.426e+01  
  1.7200e-01    1.028e-10    3.142e-09    5.790e-11    5.427e+01  
  1.7300e-01    1.056e-10    3.230e-09    5.949e-11    5.428e+01  
  1.7400e-01    1.085e-10    3.319e-09    6.113e-11    5.429e+01  
  1.7500e-01    1.114e-10    3.411e-09    6.282e-11    5.430e+01  
  1.7600e-01    1.145e-10    3.506e-09    6.455e-11    5.431e+01  
  1.7700e-01    1.176e-10    3.604e-09    6.633e-11    5.432e+01  
  1.7800e-01    1.208e-10    3.704e-09    6.817e-11    5.433e+01  
  1.7900e-01    1.241e-10    3.807e-09    7.006e-11    5.434e+01  
  1.8000e-01    1.275e-10    3.913e-09    7.200e-11    5.435e+01  
  1.8100e-01    1.310e-10    4.022e-09    7.399e-11    5.436e+01  
  1.8200e-01    1.346e-10    4.134e-09    7.604e-11    5.436e+01  
  1.8300e-01    1.383e-10    4.250e-09    7.815e-11    5.437e+01  
  1.8400e-01    1.421e-10    4.368e-09    8.032e-11    5.438e+01  
  1.8500e-01    1.460e-10    4.491e-09    8.255e-11    5.439e+01  
  1.8600e-01    1.500e-10    4.616e-09    8.485e-11    5.440e+01  
  1.8700e-01    1.542e-10    4.745e-09    8.721e-11    5.441e+01  
  1.8800e-01    1.584e-10    4.878e-09    8.963e-11    5.442e+01  
  1.8900e-01    1.628e-10    5.015e-09    9.213e-11    5.443e+01  
  1.9000e-01    1.673e-10    5.155e-09    9.470e-11    5.444e+01  
  1.9100e-01    1.719e-10    5.300e-09    9.734e-11    5.445e+01  
  1.9200e-01    1.767e-10    5.449e-09    1.000e-10    5.446e+01  
  1.9300e-01    1.816e-10    5.602e-09    1.028e-10    5.446e+01  
  1.9400e-01    1.867e-10    5.759e-09    1.057e-10    5.447e+01  
  1.9500e-01    1.918e-10    5.921e-09    1.087e-10    5.448e+01  
  1.9600e-01    1.972e-10    6.087e-09    1.117e-10    5.449e+01  
  1.9700e-01    2.027e-10    6.258e-09    1.148e-10    5.450e+01  
  1.9800e-01    2.083e-10    6.434e-09    1.180e-10    5.451e+01  
  1.9900e-01    2.141e-10    6.615e-09    1.213e-10    5.452e+01  
  2.0000e-01    2.201e-10    6.801e-09    1.247e-10    5.453e+01  
  2.0100e-01    2.263e-10    6.993e-09    1.282e-10    5.454e+01  
  2.0200e-01    2.326e-10    7.190e-09    1.318e-10    5.454e+01  
  2.0300e-01    2.391e-10    7.392e-09    1.355e-10    5.455e+01  
  2.0400e-01    2.458e-10    7.601e-09    1.393e-10    5.456e+01  
  2.0500e-01    2.527e-10    7.815e-09    1.432e-10    5.457e+01  
  2.0600e-01    2.597e-10    8.035e-09    1.472e-10    5.458e+01  
  2.0700e-01    2.670e-10    8.262e-09    1.513e-10    5.459e+01  
  2.0800e-01    2.745e-10    8.495e-09    1.556e-10    5.460e+01  
  2.0900e-01    2.822e-10    8.734e-09    1.599e-10    5.461e+01  
  2.1000e-01    2.901e-10    8.981e-09    1.644e-10    5.461e+01  
  2.1100e-01    2.983e-10    9.234e-09    1.690e-10    5.462e+01  
  2.1200e-01    3.067e-10    9.495e-09    1.738e-10    5.463e+01  
  2.1300e-01    3.153e-10    9.763e-09    1.787e-10    5.464e+01  
  2.1400e-01    3.242e-10    1.004e-08    1.837e-10    5.465e+01  
  2.1500e-01    3.333e-10    1.032e-08    1.888e-10    5.466e+01  
  2.1600e-01    3.427e-10    1.061e-08    1.941e-10    5.467e+01  
  2.1700e-01    3.524e-10    1.091e-08    1.996e-10    5.467e+01  
  2.1800e-01    3.623e-10    1.122e-08    2.052e-10    5.468e+01  
  2.1900e-01    3.725e-10    1.154e-08    2.110e-10    5.469e+01  
  2.2000e-01    3.830e-10    1.187e-08    2.169e-10    5.470e+01  
  2.2100e-01    3.938e-10    1.220e-08    2.230e-10    5.471e+01  
  2.2200e-01    4.049e-10    1.255e-08    2.293e-10    5.472e+01  
  2.2300e-01    4.164e-10    1.290e-08    2.357e-10    5.472e+01  
  2.2400e-01    4.281e-10    1.327e-08    2.423e-10    5.473e+01  
  2.2500e-01    4.402e-10    1.364e-08    2.492e-10    5.474e+01  
  2.2600e-01    4.527e-10    1.403e-08    2.562e-10    5.475e+01  
  2.2700e-01    4.655e-10    1.442e-08    2.634e-10    5.476e+01  
  2.2800e-01    4.787e-10    1.483e-08    2.708e-10    5.477e+01  
  2.2900e-01    4.922e-10    1.525e-08    2.784e-10    5.477e+01  
  2.3000e-01    5.061e-10    1.568e-08    2.862e-10    5.478e+01  
  2.3100e-01    5.205e-10    1.612e-08    2.943e-10    5.479e+01  
  2.3200e-01    5.352e-10    1.658e-08    3.025e-10    5.480e+01  
  2.3300e-01    5.503e-10    1.705e-08    3.111e-10    5.481e+01  
  2.3400e-01    5.659e-10    1.753e-08    3.198e-10    5.481e+01  
  2.3500e-01    5.820e-10    1.803e-08    3.288e-10    5.482e+01  
  2.3600e-01    5.985e-10    1.854e-08    3.381e-10    5.483e+01  
  2.3700e-01    6.154e-10    1.906e-08    3.476e-10    5.484e+01  
  2.3800e-01    6.329e-10    1.960e-08    3.573e-10    5.484e+01  
  2.3900e-01    6.508e-10    2.015e-08    3.674e-10    5.485e+01  
  2.4000e-01    6.693e-10    2.072e-08    3.777e-10    5.486e+01  
  2.4100e-01    6.882e-10    2.131e-08    3.884e-10    5.487e+01  
  2.4200e-01    7.078e-10    2.191e-08    3.993e-10    5.488e+01  
  2.4300e-01    7.278e-10    2.253e-08    4.105e-10    5.488e+01  
  2.4400e-01    7.485e-10    2.317e-08    4.221e-10    5.489e+01  
  2.4500e-01    7.697e-10    2.382e-08    4.339e-10    5.490e+01  
  2.4600e-01    7.916e-10    2.450e-08    4.461e-10    5.491e+01  
  2.4700e-01    8.140e-10    2.519e-08    4.587e-10    5.491e+01  
  2.4800e-01    8.372e-10    2.590e-08    4.716e-10    5.492e+01  
  2.4900e-01    8.609e-10    2.663e-08    4.849e-10    5.493e+01  
  2.5000e-01    8.854e-10    2.739e-08    4.985e-10    5.493e+01  
  2.5100e-01    9.105e-10    2.816e-08    5.125e-10    5.494e+01  
  2.5200e-01    9.363e-10    2.896e-08    5.269e-10    5.495e+01  
  2.5300e-01    9.629e-10    2.977e-08    5.417e-10    5.496e+01  
  2.5400e-01    9.903e-10    3.061e-08    5.570e-10    5.496e+01  
  2.5500e-01    1.018e-09    3.148e-08    5.726e-10    5.497e+01  
  2.5600e-01    1.047e-09    3.237e-08    5.887e-10    5.498e+01  
  2.5700e-01    1.077e-09    3.328e-08    6.052e-10    5.498e+01  
  2.5800e-01    1.108e-09    3.422e-08    6.223e-10    5.499e+01  
  2.5900e-01    1.139e-09    3.519e-08    6.397e-10    5.500e+01  
  2.6000e-01    1.171e-09    3.618e-08    6.577e-10    5.500e+01  
  2.6100e-01    1.205e-09    3.720e-08    6.762e-10    5.501e+01  
  2.6200e-01    1.239e-09    3.825e-08    6.952e-10    5.502e+01  
  2.6300e-01    1.274e-09    3.933e-08    7.147e-10    5.502e+01  
  2.6400e-01    1.310e-09    4.044e-08    7.348e-10    5.503e+01  
  2.6500e-01    1.348e-09    4.158e-08    7.554e-10    5.504e+01  
  2.6600e-01    1.386e-09    4.275e-08    7.766e-10    5.504e+01  
  2.6700e-01    1.425e-09    4.395e-08    7.984e-10    5.505e+01  
  2.6800e-01    1.466e-09    4.519e-08    8.208e-10    5.506e+01  
  2.6900e-01    1.507e-09    4.647e-08    8.438e-10    5.506e+01  
  2.7000e-01    1.550e-09    4.777e-08    8.675e-10    5.507e+01  
  2.7100e-01    1.594e-09    4.912e-08    8.918e-10    5.508e+01  
  2.7200e-01    1.639e-09    5.050e-08    9.168e-10    5.508e+01  
  2.7300e-01    1.686e-09    5.192e-08    9.425e-10    5.509e+01  
  2.7400e-01    1.734e-09    5.339e-08    9.689e-10    5.509e+01  
  2.7500e-01    1.783e-09    5.489e-08    9.961e-10    5.510e+01  
  2.7600e-01    1.834e-09    5.643e-08    1.024e-09    5.511e+01  
  2.7700e-01    1.886e-09    5.802e-08    1.053e-09    5.511e+01  
  2.7800e-01    1.939e-09    5.965e-08    1.082e-09    5.512e+01  
  2.7900e-01    1.994e-09    6.133e-08    1.112e-09    5.512e+01  
  2.8000e-01    2.051e-09    6.305e-08    1.144e-09    5.513e+01  
  2.8100e-01    2.109e-09    6.482e-08    1.176e-09    5.513e+01  
  2.8200e-01    2.169e-09    6.664e-08    1.208e-09    5.514e+01  
  2.8300e-01    2.230e-09    6.851e-08    1.242e-09    5.515e+01  
  2.8400e-01    2.294e-09    7.044e-08    1.277e-09    5.515e+01  
  2.8500e-01    2.359e-09    7.241e-08    1.313e-09    5.516e+01  
  2.8600e-01    2.426e-09    7.444e-08    1.349e-09    5.516e+01  
  2.8700e-01    2.494e-09    7.653e-08    1.387e-09    5.517e+01  
  2.8800e-01    2.565e-09    7.868e-08    1.426e-09    5.517e+01  
  2.8900e-01    2.638e-09    8.088e-08    1.466e-09    5.518e+01  
  2.9000e-01    2.713e-09    8.315e-08    1.507e-09    5.518e+01  
  2.9100e-01    2.789e-09    8.548e-08    1.549e-09    5.519e+01  
  2.9200e-01    2.869e-09    8.787e-08    1.592e-09    5.519e+01  
  2.9300e-01    2.950e-09    9.033e-08    1.636e-09    5.520e+01  
  2.9400e-01    3.033e-09    9.286e-08    1.682e-09    5.520e+01  
  2.9500e-01    3.119e-09    9.545e-08    1.729e-09    5.521e+01  
  2.9600e-01    3.208e-09    9.812e-08    1.777e-09    5.521e+01  
  2.9700e-01    3.298e-09    1.009e-07    1.827e-09    5.522e+01  
  2.9800e-01    3.392e-09    1.037e-07    1.878e-09    5.522e+01  
  2.9900e-01    3.488e-09    1.066e-07    1.930e-09    5.523e+01  
  3.0000e-01    3.587e-09    1.096e-07    1.984e-09    5.523e+01  
  3.0100e-01    3.688e-09    1.126e-07    2.039e-09    5.523e+01  
  3.0200e-01    3.792e-09    1.158e-07    2.095e-09    5.524e+01  
  3.0300e-01    3.900e-09    1.190e-07    2.154e-09    5.524e+01  
  3.0400e-01    4.010e-09    1.223e-07    2.214e-09    5.525e+01  
  3.0500e-01    4.123e-09    1.257e-07    2.275e-09    5.525e+01  
  3.0600e-01    4.240e-09    1.292e-07    2.338e-09    5.525e+01  
  3.0700e-01    4.360e-09    1.328e-07    2.403e-09    5.526e+01  
  3.0800e-01    4.483e-09    1.365e-07    2.470e-09    5.526e+01  
  3.0900e-01    4.610e-09    1.403e-07    2.539e-09    5.527e+01  
  3.1000e-01    4.740e-09    1.442e-07    2.609e-09    5.527e+01  
  3.1100e-01    4.874e-09    1.482e-07    2.681e-09    5.527e+01  
  3.1200e-01    5.011e-09    1.523e-07    2.756e-09    5.528e+01  
  3.1300e-01    5.153e-09    1.566e-07    2.832e-09    5.528e+01  
  3.1400e-01    5.298e-09    1.609e-07    2.911e-09    5.528e+01  
  3.1500e-01    5.448e-09    1.654e-07    2.991e-09    5.529e+01  
  3.1600e-01    5.601e-09    1.700e-07    3.074e-09    5.529e+01  
  3.1700e-01    5.759e-09    1.747e-07    3.159e-09    5.529e+01  
  3.1800e-01    5.922e-09    1.795e-07    3.246e-09    5.530e+01  
  3.1900e-01    6.089e-09    1.845e-07    3.336e-09    5.530e+01  
  3.2000e-01    6.260e-09    1.896e-07    3.428e-09    5.530e+01  
  3.2100e-01    6.437e-09    1.949e-07    3.523e-09    5.530e+01  
  3.2200e-01    6.618e-09    2.003e-07    3.620e-09    5.531e+01  
  3.2300e-01    6.804e-09    2.058e-07    3.720e-09    5.531e+01  
  3.2400e-01    6.996e-09    2.115e-07    3.823e-09    5.531e+01  
  3.2500e-01    7.193e-09    2.173e-07    3.928e-09    5.531e+01  
  3.2600e-01    7.395e-09    2.233e-07    4.037e-09    5.532e+01  
  3.2700e-01    7.603e-09    2.295e-07    4.148e-09    5.532e+01  
  3.2800e-01    7.817e-09    2.358e-07    4.262e-09    5.532e+01  
  3.2900e-01    8.037e-09    2.423e-07    4.380e-09    5.532e+01  
  3.3000e-01    8.263e-09    2.490e-07    4.500e-09    5.532e+01  
  3.3100e-01    8.495e-09    2.558e-07    4.624e-09    5.533e+01  
  3.3200e-01    8.733e-09    2.629e-07    4.751e-09    5.533e+01  
  3.3300e-01    8.978e-09    2.701e-07    4.881e-09    5.533e+01  
  3.3400e-01    9.230e-09    2.775e-07    5.015e-09    5.533e+01  
  3.3500e-01    9.489e-09    2.852e-07    5.153e-09    5.533e+01  
  3.3600e-01    9.756e-09    2.930e-07    5.294e-09    5.533e+01  
  3.3700e-01    1.003e-08    3.010e-07    5.440e-09    5.534e+01  
  3.3800e-01    1.031e-08    3.093e-07    5.589e-09    5.534e+01  
  3.3900e-01    1.060e-08    3.178e-07    5.742e-09    5.534e+01  
  3.4000e-01    1.090e-08    3.265e-07    5.899e-09    5.534e+01  
  3.4100e-01    1.120e-08    3.354e-07    6.060e-09    5.534e+01  
  3.4200e-01    1.151e-08    3.446e-07    6.226e-09    5.534e+01  
  3.4300e-01    1.184e-08    3.540e-07    6.396e-09    5.534e+01  
  3.4400e-01    1.217e-08    3.637e-07    6.571e-09    5.534e+01  
  3.4500e-01    1.251e-08    3.736e-07    6.750e-09    5.534e+01  
  3.4600e-01    1.286e-08    3.838e-07    6.934e-09    5.534e+01  
  3.4700e-01    1.322e-08    3.943e-07    7.123e-09    5.535e+01  
  3.4800e-01    1.359e-08    4.050e-07    7.317e-09    5.535e+01  
  3.4900e-01    1.397e-08    4.160e-07    7.517e-09    5.535e+01  
  3.5000e-01    1.435e-08    4.274e-07    7.721e-09    5.535e+01  
  3.5100e-01    1.476e-08    4.390e-07    7.931e-09    5.535e+01  
  3.5200e-01    1.517e-08    4.509e-07    8.147e-09    5.535e+01  
  3.5300e-01    1.559e-08    4.632e-07    8.368e-09    5.535e+01  
  3.5400e-01    1.602e-08    4.757e-07    8.595e-09    5.535e+01  
  3.5500e-01    1.647e-08    4.887e-07    8.828e-09    5.535e+01  
  3.5600e-01    1.693e-08    5.019e-07    9.068e-09    5.535e+01  
  3.5700e-01    1.740e-08    5.155e-07    9.313e-09    5.535e+01  
  3.5800e-01    1.788e-08    5.294e-07    9.565e-09    5.535e+01  
  3.5900e-01    1.838e-08    5.438e-07    9.824e-09    5.535e+01  
  3.6000e-01    1.889e-08    5.585e-07    1.009e-08    5.535e+01  
  3.6100e-01    1.942e-08    5.735e-07    1.036e-08    5.534e+01  
  3.6200e-01    1.995e-08    5.890e-07    1.064e-08    5.534e+01  
  3.6300e-01    2.051e-08    6.049e-07    1.093e-08    5.534e+01  
  3.6400e-01    2.108e-08    6.212e-07    1.122e-08    5.534e+01  
  3.6500e-01    2.166e-08    6.379e-07    1.153e-08    5.534e+01  
  3.6600e-01    2.226e-08    6.551e-07    1.184e-08    5.534e+01  
  3.6700e-01    2.288e-08    6.727e-07    1.216e-08    5.534e+01  
  3.6800e-01    2.351e-08    6.908e-07    1.248e-08    5.534e+01  
  3.6900e-01    2.416e-08    7.093e-07    1.282e-08    5.534e+01  
  3.7000e-01    2.483e-08    7.284e-07    1.316e-08    5.534e+01  
  3.7100e-01    2.552e-08    7.479e-07    1.351e-08    5.534e+01  
  3.7200e-01    2.622e-08    7.679e-07    1.388e-08    5.533e+01  
  3.7300e-01    2.695e-08    7.885e-07    1.425e-08    5.533e+01  
  3.7400e-01    2.769e-08    8.095e-07    1.463e-08    5.533e+01  
  3.7500e-01    2.845e-08    8.312e-07    1.502e-08    5.533e+01  
  3.7600e-01    2.924e-08    8.533e-07    1.542e-08    5.533e+01  
  3.7700e-01    3.004e-08    8.761e-07    1.583e-08    5.533e+01  
  3.7800e-01    3.087e-08    8.994e-07    1.626e-08    5.533e+01  
  3.7900e-01    3.172e-08    9.234e-07    1.669e-08    5.532e+01  
  3.8000e-01    3.259e-08    9.479e-07    1.713e-08    5.532e+01  
  3.8100e-01    3.349e-08    9.731e-07    1.759e-08    5.532e+01  
  3.8200e-01    3.441e-08    9.990e-07    1.806e-08    5.532e+01  
  3.8300e-01    3.535e-08    1.025e-06    1.854e-08    5.532e+01  
  3.8400e-01    3.632e-08    1.053e-06    1.903e-08    5.532e+01  
  3.8500e-01    3.732e-08    1.081e-06    1.953e-08    5.531e+01  
  3.8600e-01    3.834e-08    1.109e-06    2.005e-08    5.531e+01  
  3.8700e-01    3.939e-08    1.138e-06    2.058e-08    5.531e+01  
  3.8800e-01    4.047e-08    1.168e-06    2.113e-08    5.531e+01  
  3.8900e-01    4.158e-08    1.199e-06    2.168e-08    5.531e+01  
  3.9000e-01    4.272e-08    1.231e-06    2.226e-08    5.530e+01  
  3.9100e-01    4.388e-08    1.263e-06    2.284e-08    5.530e+01  
  3.9200e-01    4.508e-08    1.297e-06    2.344e-08    5.530e+01  
  3.9300e-01    4.631e-08    1.331e-06    2.406e-08    5.530e+01  
  3.9400e-01    4.758e-08    1.366e-06    2.469e-08    5.530e+01  
  3.9500e-01    4.887e-08    1.401e-06    2.534e-08    5.529e+01  
  3.9600e-01    5.020e-08    1.438e-06    2.601e-08    5.529e+01  
  3.9700e-01    5.157e-08    1.476e-06    2.669e-08    5.529e+01  
  3.9800e-01    5.297e-08    1.514e-06    2.739e-08    5.529e+01  
  3.9900e-01    5.441e-08    1.554e-06    2.811e-08    5.529e+01  
  4.0000e-01    5.589e-08    1.595e-06    2.884e-08    5.529e+01  
  4.0100e-01    5.741e-08    1.636e-06    2.959e-08    5.528e+01  
  4.0200e-01    5.897e-08    1.679e-06    3.037e-08    5.528e+01  
  4.0300e-01    6.056e-08    1.723e-06    3.116e-08    5.528e+01  
  4.0400e-01    6.220e-08    1.767e-06    3.197e-08    5.528e+01  
  4.0500e-01    6.389e-08    1.813e-06    3.280e-08    5.528e+01  
  4.0600e-01    6.562e-08    1.860e-06    3.365e-08    5.528e+01  
  4.0700e-01    6.739e-08    1.908e-06    3.452e-08    5.527e+01  
  4.0800e-01    6.921e-08    1.958e-06    3.542e-08    5.527e+01  
  4.0900e-01    7.108e-08    2.009e-06    3.634e-08    5.527e+01  
  4.1000e-01    7.300e-08    2.060e-06    3.728e-08    5.527e+01  
  4.1100e-01    7.496e-08    2.114e-06    3.824e-08    5.527e+01  
  4.1200e-01    7.698e-08    2.168e-06    3.923e-08    5.527e+01  
  4.1300e-01    7.905e-08    2.224e-06    4.024e-08    5.527e+01  
  4.1400e-01    8.118e-08    2.281e-06    4.127e-08    5.527e+01  
  4.1500e-01    8.336e-08    2.340e-06    4.234e-08    5.527e+01  
  4.1600e-01    8.560e-08    2.400e-06    4.342e-08    5.526e+01  
  4.1700e-01    8.789e-08    2.462e-06    4.454e-08    5.526e+01  
  4.1800e-01    9.025e-08    2.525e-06    4.568e-08    5.526e+01  
  4.1900e-01    9.267e-08    2.589e-06    4.685e-08    5.526e+01  
  4.2000e-01    9.515e-08    2.655e-06    4.805e-08    5.526e+01  
  4.2100e-01    9.769e-08    2.723e-06    4.927e-08    5.526e+01  
  4.2200e-01    1.003e-07    2.793e-06    5.053e-08    5.526e+01  
  4.2300e-01    1.030e-07    2.864e-06    5.182e-08    5.526e+01  
  4.2400e-01    1.057e-07    2.937e-06    5.314e-08    5.526e+01  
  4.2500e-01    1.085e-07    3.011e-06    5.449e-08    5.527e+01  
  4.2600e-01    1.114e-07    3.088e-06    5.587e-08    5.527e+01  
  4.2700e-01    1.144e-07    3.166e-06    5.729e-08    5.527e+01  
  4.2800e-01    1.174e-07    3.247e-06    5.874e-08    5.527e+01  
  4.2900e-01    1.206e-07    3.329e-06    6.022e-08    5.527e+01  
  4.3000e-01    1.238e-07    3.413e-06    6.174e-08    5.527e+01  
  4.3100e-01    1.270e-07    3.499e-06    6.330e-08    5.527e+01  
  4.3200e-01    1.304e-07    3.587e-06    6.489e-08    5.527e+01  
  4.3300e-01    1.339e-07    3.678e-06    6.653e-08    5.528e+01  
  4.3400e-01    1.374e-07    3.770e-06    6.820e-08    5.528e+01  
  4.3500e-01    1.410e-07    3.865e-06    6.991e-08    5.528e+01  
  4.3600e-01    1.447e-07    3.962e-06    7.166e-08    5.529e+01  
  4.3700e-01    1.486e-07    4.061e-06    7.345e-08    5.529e+01  
  4.3800e-01    1.525e-07    4.163e-06    7.529e-08    5.529e+01  
  4.3900e-01    1.565e-07    4.267e-06    7.716e-08    5.530e+01  
  4.4000e-01    1.606e-07    4.374e-06    7.909e-08    5.530e+01  
  4.4100e-01    1.648e-07    4.483e-06    8.105e-08    5.530e+01  
  4.4200e-01    1.692e-07    4.595e-06    8.307e-08    5.531e+01  
  4.4300e-01    1.736e-07    4.709e-06    8.513e-08    5.531e+01  
  4.4400e-01    1.781e-07    4.826e-06    8.724e-08    5.532e+01  
  4.4500e-01    1.828e-07    4.946e-06    8.940e-08    5.532e+01  
  4.4600e-01    1.876e-07    5.069e-06    9.160e-08    5.533e+01  
  4.4700e-01    1.925e-07    5.194e-06    9.386e-08    5.534e+01  
  4.4800e-01    1.975e-07    5.323e-06    9.617e-08    5.534e+01  
  4.4900e-01    2.027e-07    5.454e-06    9.854e-08    5.535e+01  
  4.5000e-01    2.079e-07    5.589e-06    1.010e-07    5.536e+01  
  4.5100e-01    2.134e-07    5.727e-06    1.034e-07    5.536e+01  
  4.5200e-01    2.189e-07    5.868e-06    1.060e-07    5.537e+01  
  4.5300e-01    2.246e-07    6.012e-06    1.086e-07    5.538e+01  
  4.5400e-01    2.304e-07    6.160e-06    1.112e-07    5.539e+01  
  4.5500e-01    2.364e-07    6.311e-06    1.139e-07    5.540e+01  
  4.5600e-01    2.425e-07    6.465e-06    1.167e-07    5.541e+01  
  4.5700e-01    2.488e-07    6.623e-06    1.195e-07    5.541e+01  
  4.5800e-01    2.552e-07    6.785e-06    1.224e-07    5.542e+01  
  4.5900e-01    2.618e-07    6.951e-06    1.254e-07    5.543e+01  
  4.6000e-01    2.686e-07    7.120e-06    1.284e-07    5.545e+01  
  4.6100e-01    2.755e-07    7.293e-06    1.315e-07    5.546e+01  
  4.6200e-01    2.826e-07    7.470e-06    1.347e-07    5.547e+01  
  4.6300e-01    2.898e-07    7.651e-06    1.379e-07    5.548e+01  
  4.6400e-01    2.973e-07    7.837e-06    1.412e-07    5.549e+01  
  4.6500e-01    3.049e-07    8.026e-06    1.446e-07    5.550e+01  
  4.6600e-01    3.127e-07    8.220e-06    1.481e-07    5.552e+01  
  4.6700e-01    3.207e-07    8.418e-06    1.516e-07    5.553e+01  
  4.6800e-01    3.290e-07    8.621e-06    1.552e-07    5.554e+01  
  4.6900e-01    3.374e-07    8.828e-06    1.589e-07    5.556e+01  
  4.7000e-01    3.460e-07    9.040e-06    1.627e-07    5.557e+01  
  4.7100e-01    3.548e-07    9.257e-06    1.665e-07    5.559e+01  
  4.7200e-01    3.638e-07    9.479e-06    1.705e-07    5.560e+01  
  4.7300e-01    3.731e-07    9.705e-06    1.745e-07    5.562e+01  
  4.7400e-01    3.826e-07    9.937e-06    1.786e-07    5.564e+01  
  4.7500e-01    3.923e-07    1.017e-05    1.828e-07    5.565e+01  
  4.7600e-01    4.022e-07    1.042e-05    1.871e-07    5.567e+01  
  4.7700e-01    4.124e-07    1.066e-05    1.915e-07    5.569e+01  
  4.7800e-01    4.229e-07    1.092e-05    1.959e-07    5.571e+01  
  4.7900e-01    4.336e-07    1.117e-05    2.005e-07    5.572e+01  
  4.8000e-01    4.445e-07    1.144e-05    2.052e-07    5.574e+01  
  4.8100e-01    4.557e-07    1.171e-05    2.099e-07    5.576e+01  
  4.8200e-01    4.672e-07    1.198e-05    2.148e-07    5.578e+01  
  4.8300e-01    4.790e-07    1.227e-05    2.198e-07    5.580e+01  
  4.8400e-01    4.910e-07    1.255e-05    2.249e-07    5.582e+01  
  4.8500e-01    5.034e-07    1.285e-05    2.300e-07    5.584e+01  
  4.8600e-01    5.160e-07    1.315e-05    2.353e-07    5.587e+01  
  4.8700e-01    5.289e-07    1.346e-05    2.407e-07    5.589e+01  
  4.8800e-01    5.422e-07    1.377e-05    2.462e-07    5.591e+01  
  4.8900e-01    5.557e-07    1.409e-05    2.519e-07    5.593e+01  
  4.9000e-01    5.696e-07    1.442e-05    2.576e-07    5.595e+01  
  4.9100e-01    5.838e-07    1.475e-05    2.635e-07    5.598e+01  
  4.9200e-01    5.984e-07    1.509e-05    2.695e-07    5.600e+01  
  4.9300e-01    6.133e-07    1.544e-05    2.756e-07    5.603e+01  
  4.9400e-01    6.285e-07    1.579e-05    2.818e-07    5.605e+01  
  4.9500e-01    6.441e-07    1.616e-05    2.881e-07    5.607e+01  
  4.9600e-01    6.601e-07    1.653e-05    2.946e-07    5.610e+01  
  4.9700e-01    6.764e-07    1.691e-05    3.012e-07    5.613e+01  
  4.9800e-01    6.932e-07    1.729e-05    3.079e-07    5.615e+01  
  4.9900e-01    7.103e-07    1.769e-05    3.148e-07    5.618e+01  
  5.0000e-01    7.279e-07    1.809e-05    3.218e-07    5.620e+01  
  5.0100e-01    7.458e-07    1.850e-05    3.290e-07    5.623e+01  
  5.0200e-01    7.642e-07    1.892e-05    3.362e-07    5.626e+01  
  5.0300e-01    7.830e-07    1.934e-05    3.437e-07    5.629e+01  
  5.0400e-01    8.022e-07    1.978e-05    3.512e-07    5.631e+01  
  5.0500e-01    8.219e-07    2.023e-05    3.590e-07    5.634e+01  
  5.0600e-01    8.421e-07    2.068e-05    3.668e-07    5.637e+01  
  5.0700e-01    8.627e-07    2.114e-05    3.748e-07    5.640e+01  
  5.0800e-01    8.838e-07    2.161e-05    3.830e-07    5.643e+01  
  5.0900e-01    9.054e-07    2.209e-05    3.913e-07    5.646e+01  
  5.1000e-01    9.275e-07    2.258e-05    3.998e-07    5.648e+01  
  5.1100e-01    9.501e-07    2.308e-05    4.084e-07    5.651e+01  
  5.1200e-01    9.732e-07    2.359e-05    4.172e-07    5.654e+01  
  5.1300e-01    9.968e-07    2.411e-05    4.262e-07    5.657e+01  
  5.1400e-01    1.021e-06    2.464e-05    4.353e-07    5.660e+01  
  5.1500e-01    1.046e-06    2.518e-05    4.446e-07    5.663e+01  
  5.1600e-01    1.071e-06    2.573e-05    4.541e-07    5.666e+01  
  5.1700e-01    1.097e-06    2.629e-05    4.637e-07    5.669e+01  
  5.1800e-01    1.123e-06    2.686e-05    4.735e-07    5.673e+01  
  5.1900e-01    1.151e-06    2.744e-05    4.835e-07    5.676e+01  
  5.2000e-01    1.178e-06    2.804e-05    4.937e-07    5.679e+01  
  5.2100e-01    1.207e-06    2.864e-05    5.040e-07    5.682e+01  
  5.2200e-01    1.236e-06    2.925e-05    5.145e-07    5.685e+01  
  5.2300e-01    1.265e-06    2.988e-05    5.253e-07    5.688e+01  
  5.2400e-01    1.296e-06    3.052e-05    5.362e-07    5.691e+01  
  5.2500e-01    1.327e-06    3.116e-05    5.472e-07    5.694e+01  
  5.2600e-01    1.358e-06    3.182e-05    5.585e-07    5.697e+01  
  5.2700e-01    1.391e-06    3.250e-05    5.700e-07    5.701e+01  
  5.2800e-01    1.424e-06    3.318e-05    5.817e-07    5.704e+01  
  5.2900e-01    1.458e-06    3.387e-05    5.935e-07    5.707e+01  
  5.3000e-01    1.492e-06    3.458e-05    6.056e-07    5.710e+01  
  5.3100e-01    1.528e-06    3.530e-05    6.178e-07    5.713e+01  
  5.3200e-01    1.564e-06    3.603e-05    6.303e-07    5.716e+01  
  5.3300e-01    1.601e-06    3.678e-05    6.430e-07    5.719e+01  
  5.3400e-01    1.639e-06    3.753e-05    6.558e-07    5.723e+01  
  5.3500e-01    1.677e-06    3.830e-05    6.689e-07    5.726e+01  
  5.3600e-01    1.717e-06    3.909e-05    6.822e-07    5.729e+01  
  5.3700e-01    1.757e-06    3.988e-05    6.957e-07    5.732e+01  
  5.3800e-01    1.798e-06    4.069e-05    7.094e-07    5.735e+01  
  5.3900e-01    1.840e-06    4.151e-05    7.234e-07    5.738e+01  
  5.4000e-01    1.884e-06    4.234e-05    7.375e-07    5.741e+01  
  5.4100e-01    1.927e-06    4.319e-05    7.519e-07    5.744e+01  
  5.4200e-01    1.972e-06    4.405e-05    7.665e-07    5.747e+01  
  5.4300e-01    2.018e-06    4.493e-05    7.813e-07    5.750e+01  
  5.4400e-01    2.065e-06    4.582e-05    7.963e-07    5.753e+01  
  5.4500e-01    2.113e-06    4.672e-05    8.116e-07    5.756e+01  
  5.4600e-01    2.162e-06    4.763e-05    8.270e-07    5.759e+01  
  5.4700e-01    2.212e-06    4.856e-05    8.427e-07    5.762e+01  
  5.4800e-01    2.263e-06    4.950e-05    8.587e-07    5.765e+01  
  5.4900e-01    2.315e-06    5.046e-05    8.748e-07    5.768e+01  
  5.5000e-01    2.368e-06    5.143e-05    8.912e-07    5.770e+01  
  5.5100e-01    2.423e-06    5.242e-05    9.078e-07    5.773e+01  
  5.5200e-01    2.478e-06    5.341e-05    9.247e-07    5.776e+01  
  5.5300e-01    2.535e-06    5.443e-05    9.418e-07    5.779e+01  
  5.5400e-01    2.593e-06    5.545e-05    9.591e-07    5.781e+01  
  5.5500e-01    2.652e-06    5.649e-05    9.767e-07    5.784e+01  
  5.5600e-01    2.712e-06    5.755e-05    9.944e-07    5.787e+01  
  5.5700e-01    2.774e-06    5.862e-05    1.012e-06    5.789e+01  
  5.5800e-01    2.836e-06    5.970e-05    1.031e-06    5.792e+01  
  5.5900e-01    2.900e-06    6.080e-05    1.049e-06    5.794e+01  
  5.6000e-01    2.966e-06    6.191e-05    1.068e-06    5.797e+01  
  5.6100e-01    3.033e-06    6.304e-05    1.087e-06    5.799e+01  
  5.6200e-01    3.101e-06    6.418e-05    1.106e-06    5.801e+01  
  5.6300e-01    3.170e-06    6.533e-05    1.126e-06    5.804e+01  
  5.6400e-01    3.241e-06    6.650e-05    1.145e-06    5.806e+01  
  5.6500e-01    3.313e-06    6.768e-05    1.165e-06    5.808e+01  
  5.6600e-01    3.387e-06    6.888e-05    1.185e-06    5.810e+01  
  5.6700e-01    3.462e-06    7.009e-05    1.206e-06    5.812e+01  
  5.6800e-01    3.539e-06    7.132e-05    1.226e-06    5.815e+01  
  5.6900e-01    3.617e-06    7.256e-05    1.247e-06    5.817e+01  
  5.7000e-01    3.697e-06    7.381e-05    1.268e-06    5.819e+01  
  5.7100e-01    3.778e-06    7.508e-05    1.290e-06    5.820e+01  
  5.7200e-01    3.861e-06    7.636e-05    1.311e-06    5.822e+01  
  5.7300e-01    3.945e-06    7.765e-05    1.333e-06    5.824e+01  
  5.7400e-01    4.031e-06    7.896e-05    1.355e-06    5.826e+01  
  5.7500e-01    4.119e-06    8.028e-05    1.378e-06    5.827e+01  
  5.7600e-01    4.208e-06    8.161e-05    1.400e-06    5.829e+01  
  5.7700e-01    4.299e-06    8.296e-05    1.423e-06    5.831e+01  
  5.7800e-01    4.392e-06    8.432e-05    1.446e-06    5.832e+01  
  5.7900e-01    4.487e-06    8.570e-05    1.469e-06    5.833e+01  
  5.8000e-01    4.583e-06    8.709e-05    1.492e-06    5.835e+01  
  5.8100e-01    4.681e-06    8.849e-05    1.516e-06    5.836e+01  
  5.8200e-01    4.781e-06    8.990e-05    1.540e-06    5.837e+01  
  5.8300e-01    4.883e-06    9.132e-05    1.564e-06    5.838e+01  
  5.8400e-01    4.987e-06    9.276e-05    1.588e-06    5.839e+01  
  5.8500e-01    5.093e-06    9.421e-05    1.613e-06    5.840e+01  
  5.8600e-01    5.200e-06    9.567e-05    1.638e-06    5.841e+01  
  5.8700e-01    5.310e-06    9.715e-05    1.663e-06    5.842e+01  
  5.8800e-01    5.421e-06    9.863e-05    1.688e-06    5.843e+01  
  5.8900e-01    5.534e-06    1.001e-04    1.713e-06    5.844e+01  
  5.9000e-01    5.650e-06    1.016e-04    1.739e-06    5.844e+01  
  5.9100e-01    5.767e-06    1.032e-04    1.765e-06    5.845e+01  
  5.9200e-01    5.887e-06    1.047e-04    1.791e-06    5.846e+01  
  5.9300e-01    6.009e-06    1.062e-04    1.817e-06    5.846e+01  
  5.9400e-01    6.132e-06    1.078e-04    1.843e-06    5.846e+01  
  5.9500e-01    6.258e-06    1.093e-04    1.870e-06    5.847e+01  
  5.9600e-01    6.386e-06    1.109e-04    1.897e-06    5.847e+01  
  5.9700e-01    6.516e-06    1.125e-04    1.924e-06    5.847e+01  
  5.9800e-01    6.649e-06    1.141e-04    1.951e-06    5.847e+01  
  5.9900e-01    6.784e-06    1.157e-04    1.979e-06    5.847e+01  
  6.0000e-01    6.920e-06    1.173e-04    2.006e-06    5.847e+01  
  6.0100e-01    7.060e-06    1.189e-04    2.034e-06    5.847e+01  
  6.0200e-01    7.201e-06    1.206e-04    2.062e-06    5.846e+01  
  6.0300e-01    7.345e-06    1.222e-04    2.090e-06    5.846e+01  
  6.0400e-01    7.491e-06    1.238e-04    2.118e-06    5.846e+01  
  6.0500e-01    7.640e-06    1.255e-04    2.147e-06    5.845e+01  
  6.0600e-01    7.791e-06    1.271e-04    2.175e-06    5.845e+01  
  6.0700e-01    7.944e-06    1.288e-04    2.204e-06    5.844e+01  
  6.0800e-01    8.100e-06    1.305e-04    2.233e-06    5.843e+01  
  6.0900e-01    8.258e-06    1.322e-04    2.262e-06    5.842e+01  
  6.1000e-01    8.419e-06    1.339e-04    2.291e-06    5.841e+01  
  6.1100e-01    8.582e-06    1.356e-04    2.321e-06    5.840e+01  
  6.1200e-01    8.748e-06    1.373e-04    2.350e-06    5.839e+01  
  6.1300e-01    8.916e-06    1.390e-04    2.380e-06    5.838e+01  
  6.1400e-01    9.087e-06    1.407e-04    2.410e-06    5.837e+01  
  6.1500e-01    9.260e-06    1.424e-04    2.440e-06    5.836e+01  
  6.1600e-01    9.436e-06    1.441e-04    2.470e-06    5.834e+01  
  6.1700e-01    9.615e-06    1.458e-04    2.500e-06    5.833e+01  
  6.1800e-01    9.796e-06    1.476e-04    2.530e-06    5.831e+01  
  6.1900e-01    9.980e-06    1.493e-04    2.561e-06    5.830e+01  
  6.2000e-01    1.017e-05    1.510e-04    2.591e-06    5.828e+01  
  6.2100e-01    1.036e-05    1.528e-04    2.622e-06    5.826e+01  
  6.2200e-01    1.055e-05    1.545e-04    2.653e-06    5.825e+01  
  6.2300e-01    1.074e-05    1.563e-04    2.684e-06    5.823e+01  
  6.2400e-01    1.094e-05    1.580e-04    2.715e-06    5.821e+01  
  6.2500e-01    1.114e-05    1.598e-04    2.746e-06    5.819e+01  
  6.2600e-01    1.134e-05    1.615e-04    2.777e-06    5.816e+01  
  6.2700e-01    1.155e-05    1.633e-04    2.808e-06    5.814e+01  
  6.2800e-01    1.176e-05    1.650e-04    2.840e-06    5.812e+01  
  6.2900e-01    1.197e-05    1.668e-04    2.871e-06    5.809e+01  
  6.3000e-01    1.218e-05    1.686e-04    2.903e-06    5.807e+01  
  6.3100e-01    1.240e-05    1.703e-04    2.934e-06    5.804e+01  
  6.3200e-01    1.262e-05    1.721e-04    2.966e-06    5.802e+01  
  6.3300e-01    1.284e-05    1.738e-04    2.998e-06    5.799e+01  
  6.3400e-01    1.307e-05    1.756e-04    3.029e-06    5.796e+01  
  6.3500e-01    1.330e-05    1.774e-04    3.061e-06    5.794e+01  
  6.3600e-01    1.353e-05    1.791e-04    3.093e-06    5.791e+01  
  6.3700e-01    1.376e-05    1.809e-04    3.125e-06    5.788e+01  
  6.3800e-01    1.400e-05    1.826e-04    3.157e-06    5.785e+01  
  6.3900e-01    1.424e-05    1.844e-04    3.189e-06    5.781e+01  
  6.4000e-01    1.449e-05    1.862e-04    3.221e-06    5.778e+01  
  6.4100e-01    1.473e-05    1.879e-04    3.254e-06    5.775e+01  
  6.4200e-01    1.498e-05    1.897e-04    3.286e-06    5.772e+01  
  6.4300e-01    1.523e-05    1.914e-04    3.318e-06    5.768e+01  
  6.4400e-01    1.549e-05    1.932e-04    3.350e-06    5.765e+01  
  6.4500e-01    1.575e-05    1.949e-04    3.383e-06    5.761e+01  
  6.4600e-01    1.601e-05    1.966e-04    3.415e-06    5.758e+01  
  6.4700e-01    1.627e-05    1.984e-04    3.447e-06    5.754e+01  
  6.4800e-01    1.654e-05    2.001e-04    3.480e-06    5.750e+01  
  6.4900e-01    1.681e-05    2.018e-04    3.512e-06    5.747e+01  
  6.5000e-01    1.709e-05    2.036e-04    3.544e-06    5.743e+01  
  6.5100e-01    1.736e-05    2.053e-04    3.577e-06    5.739e+01  
  6.5200e-01    1.764e-05    2.070e-04    3.609e-06    5.735e+01  
  6.5300e-01    1.792e-05    2.087e-04    3.642e-06    5.731e+01  
  6.5400e-01    1.821e-05    2.104e-04    3.674e-06    5.727e+01  
  6.5500e-01    1.850e-05    2.121e-04    3.706e-06    5.723e+01  
  6.5600e-01    1.879e-05    2.138e-04    3.739e-06    5.719e+01  
  6.5700e-01    1.909e-05    2.155e-04    3.771e-06    5.714e+01  
  6.5800e-01    1.939e-05    2.172e-04    3.804e-06    5.710e+01  
  6.5900e-01    1.969e-05    2.189e-04    3.836e-06    5.706e+01  
  6.6000e-01    1.999e-05    2.206e-04    3.869e-06    5.701e+01  
  6.6100e-01    2.030e-05    2.223e-04    3.901e-06    5.697e+01  
  6.6200e-01    2.061e-05    2.239e-04    3.933e-06    5.692e+01  
  6.6300e-01    2.092e-05    2.256e-04    3.966e-06    5.688e+01  
  6.6400e-01    2.124e-05    2.272e-04    3.998e-06    5.683e+01  
  6.6500e-01    2.156e-05    2.289e-04    4.030e-06    5.679e+01  
  6.6600e-01    2.188e-05    2.305e-04    4.063e-06    5.674e+01  
  6.6700e-01    2.221e-05    2.322e-04    4.095e-06    5.669e+01  
  6.6800e-01    2.254e-05    2.338e-04    4.127e-06    5.665e+01  
  6.6900e-01    2.287e-05    2.354e-04    4.159e-06    5.660e+01  
  6.7000e-01    2.321e-05    2.371e-04    4.192e-06    5.655e+01  
  6.7100e-01    2.355e-05    2.387e-04    4.224e-06    5.650e+01  
  6.7200e-01    2.389e-05    2.403e-04    4.256e-06    5.645e+01  
  6.7300e-01    2.423e-05    2.419e-04    4.288e-06    5.640e+01  
  6.7400e-01    2.458e-05    2.435e-04    4.320e-06    5.635e+01  
  6.7500e-01    2.493e-05    2.451e-04    4.352e-06    5.630e+01  
  6.7600e-01    2.528e-05    2.466e-04    4.384e-06    5.625e+01  
  6.7700e-01    2.564e-05    2.482e-04    4.416e-06    5.620e+01  
  6.7800e-01    2.600e-05    2.498e-04    4.448e-06    5.615e+01  
  6.7900e-01    2.637e-05    2.513e-04    4.480e-06    5.610e+01  
  6.8000e-01    2.673e-05    2.529e-04    4.512e-06    5.605e+01  
  6.8100e-01    2.710e-05    2.544e-04    4.544e-06    5.599e+01  
  6.8200e-01    2.747e-05    2.560e-04    4.575e-06    5.594e+01  
  6.8300e-01    2.785e-05    2.575e-04    4.607e-06    5.589e+01  
  6.8400e-01    2.823e-05    2.590e-04    4.639e-06    5.584e+01  
  6.8500e-01    2.861e-05    2.605e-04    4.670e-06    5.578e+01  
  6.8600e-01    2.899e-05    2.621e-04    4.702e-06    5.573e+01  
  6.8700e-01    2.938e-05    2.636e-04    4.733e-06    5.568e+01  
  6.8800e-01    2.977e-05    2.651e-04    4.765e-06    5.562e+01  
  6.8900e-01    3.017e-05    2.665e-04    4.796e-06    5.557e+01  
  6.9000e-01    3.056e-05    2.680e-04    4.828e-06    5.552e+01  
  6.9100e-01    3.096e-05    2.695e-04    4.859e-06    5.546e+01  
  6.9200e-01    3.137e-05    2.710e-04    4.890e-06    5.541e+01  
  6.9300e-01    3.177e-05    2.724e-04    4.921e-06    5.535e+01  
  6.9400e-01    3.218e-05    2.739e-04    4.952e-06    5.530e+01  
  6.9500e-01    3.259e-05    2.753e-04    4.984e-06    5.524e+01  
  6.9600e-01    3.301e-05    2.768e-04    5.015e-06    5.519e+01  
  6.9700e-01    3.342e-05    2.782e-04    5.046e-06    5.513e+01  
  6.9800e-01    3.384e-05    2.796e-04    5.077e-06    5.508e+01  
  6.9900e-01    3.427e-05    2.811e-04    5.107e-06    5.502e+01  
  7.0000e-01    3.469e-05    2.825e-04    5.138e-06    5.497e+01  
  7.0100e-01    3.512e-05    2.839e-04    5.169e-06    5.491e+01  
  7.0200e-01    3.556e-05    2.853e-04    5.200e-06    5.486e+01  
  7.0300e-01    3.599e-05    2.867e-04    5.230e-06    5.480e+01  
  7.0400e-01    3.643e-05    2.880e-04    5.261e-06    5.475e+01  
  7.0500e-01    3.687e-05    2.894e-04    5.292e-06    5.469e+01  
  7.0600e-01    3.731e-05    2.908e-04    5.322e-06    5.463e+01  
  7.0700e-01    3.776e-05    2.922e-04    5.353e-06    5.458e+01  
  7.0800e-01    3.821e-05    2.935e-04    5.383e-06    5.452e+01  
  7.0900e-01    3.866e-05    2.949e-04    5.413e-06    5.447e+01  
  7.1000e-01    3.911e-05    2.962e-04    5.444e-06    5.441e+01  
  7.1100e-01    3.957e-05    2.976e-04    5.474e-06    5.436e+01  
  7.1200e-01    4.003e-05    2.989e-04    5.504e-06    5.430e+01  
  7.1300e-01    4.050e-05    3.002e-04    5.534e-06    5.424e+01  
  7.1400e-01    4.096e-05    3.015e-04    5.564e-06    5.419e+01  
  7.1500e-01    4.143e-05    3.029e-04    5.594e-06    5.413e+01  
  7.1600e-01    4.190e-05    3.042e-04    5.624e-06    5.408e+01  
  7.1700e-01    4.238e-05    3.055e-04    5.654e-06    5.402e+01  
  7.1800e-01    4.285e-05    3.068e-04    5.684e-06    5.397e+01  
  7.1900e-01    4.333e-05    3.080e-04    5.713e-06    5.391e+01  
  7.2000e-01    4.381e-05    3.093e-04    5.743e-06    5.386e+01  
  7.2100e-01    4.430e-05    3.106e-04    5.773e-06    5.380e+01  
  7.2200e-01    4.479e-05    3.119e-04    5.802e-06    5.375e+01  
  7.2300e-01    4.528e-05    3.131e-04    5.832e-06    5.369e+01  
  7.2400e-01    4.577e-05    3.144e-04    5.861e-06    5.364e+01  
  7.2500e-01    4.626e-05    3.157e-04    5.891e-06    5.358e+01  
  7.2600e-01    4.676e-05    3.169e-04    5.920e-06    5.353e+01  
  7.2700e-01    4.726e-05    3.182e-04    5.949e-06    5.347e+01  
  7.2800e-01    4.777e-05    3.194e-04    5.979e-06    5.342e+01  
  7.2900e-01    4.827e-05    3.206e-04    6.008e-06    5.336e+01  
  7.3000e-01    4.878e-05    3.219e-04    6.037e-06    5.331e+01  
  7.3100e-01    4.929e-05    3.231e-04    6.066e-06    5.325e+01  
  7.3200e-01    4.980e-05    3.243e-04    6.095e-06    5.320e+01  
  7.3300e-01    5.032e-05    3.255e-04    6.124e-06    5.315e+01  
  7.3400e-01    5.084e-05    3.267e-04    6.153e-06    5.309e+01  
  7.3500e-01    5.136e-05    3.279e-04    6.182e-06    5.304e+01  
  7.3600e-01    5.188e-05    3.291e-04    6.211e-06    5.299e+01  
  7.3700e-01    5.241e-05    3.303e-04    6.239e-06    5.293e+01  
  7.3800e-01    5.294e-05    3.315e-04    6.268e-06    5.288e+01  
  7.3900e-01    5.347e-05    3.327e-04    6.297e-06    5.283e+01  
  7.4000e-01    5.400e-05    3.338e-04    6.325e-06    5.277e+01  
  7.4100e-01    5.453e-05    3.350e-04    6.354e-06    5.272e+01  
  7.4200e-01    5.507e-05    3.362e-04    6.382e-06    5.267e+01  
  7.4300e-01    5.561e-05    3.373e-04    6.411e-06    5.262e+01  
  7.4400e-01    5.615e-05    3.385e-04    6.439e-06    5.256e+01  
  7.4500e-01    5.670e-05    3.396e-04    6.467e-06    5.251e+01  
  7.4600e-01    5.725e-05    3.408e-04    6.496e-06    5.246e+01  
  7.4700e-01    5.780e-05    3.419e-04    6.524e-06    5.241e+01  
  7.4800e-01    5.835e-05    3.431e-04    6.552e-06    5.236e+01  
  7.4900e-01    5.890e-05    3.442e-04    6.580e-06    5.231e+01  
  7.5000e-01    5.946e-05    3.453e-04    6.608e-06    5.225e+01  
  7.5100e-01    6.002e-05    3.465e-04    6.636e-06    5.220e+01  
  7.5200e-01    6.058e-05    3.476e-04    6.664e-06    5.215e+01  
  7.5300e-01    6.114e-05    3.487e-04    6.692e-06    5.210e+01  
  7.5400e-01    6.171e-05    3.498e-04    6.720e-06    5.205e+01  
  7.5500e-01    6.227e-05    3.509e-04    6.747e-06    5.200e+01  
  7.5600e-01    6.284e-05    3.520e-04    6.775e-06    5.195e+01  
  7.5700e-01    6.341e-05    3.531e-04    6.803e-06    5.190e+01  
  7.5800e-01    6.399e-05    3.542e-04    6.830e-06    5.185e+01  
  7.5900e-01    6.456e-05    3.553e-04    6.858e-06    5.180e+01  
  7.6000e-01    6.514e-05    3.564e-04    6.885e-06    5.176e+01  
  7.6100e-01    6.572e-05    3.575e-04    6.913e-06    5.171e+01  
  7.6200e-01    6.631e-05    3.585e-04    6.940e-06    5.166e+01  
  7.6300e-01    6.689e-05    3.596e-04    6.968e-06    5.161e+01  
  7.6400e-01    6.748e-05    3.607e-04    6.995e-06    5.156e+01  
  7.6500e-01    6.807e-05    3.618e-04    7.022e-06    5.151e+01  
  7.6600e-01    6.866e-05    3.628e-04    7.049e-06    5.146e+01  
  7.6700e-01    6.925e-05    3.639e-04    7.076e-06    5.142e+01  
  7.6800e-01    6.984e-05    3.649e-04    7.103e-06    5.137e+01  
  7.6900e-01    7.044e-05    3.660e-04    7.130e-06    5.132e+01  
  7.7000e-01    7.104e-05    3.670e-04    7.157e-06    5.128e+01  
  7.7100e-01    7.164e-05    3.681e-04    7.184e-06    5.123e+01  
  7.7200e-01    7.224e-05    3.691e-04    7.211e-06    5.118e+01  
  7.7300e-01    7.285e-05    3.701e-04    7.238e-06    5.114e+01  
  7.7400e-01    7.346e-05    3.712e-04    7.265e-06    5.109e+01  
  7.7500e-01    7.406e-05    3.722e-04    7.291e-06    5.104e+01  
  7.7600e-01    7.468e-05    3.732e-04    7.318e-06    5.100e+01  
  7.7700e-01    7.529e-05    3.743e-04    7.345e-06    5.095e+01  
  7.7800e-01    7.590e-05    3.753e-04    7.371e-06    5.091e+01  
  7.7900e-01    7.652e-05    3.763e-04    7.398e-06    5.086e+01  
  7.8000e-01    7.714e-05    3.773e-04    7.424e-06    5.082e+01  
  7.8100e-01    7.776e-05    3.783e-04    7.450e-06    5.077e+01  
  7.8200e-01    7.838e-05    3.793e-04    7.477e-06    5.073e+01  
  7.8300e-01    7.900e-05    3.803e-04    7.503e-06    5.068e+01  
  7.8400e-01    7.963e-05    3.813e-04    7.529e-06    5.064e+01  
  7.8500e-01    8.026e-05    3.823e-04    7.555e-06    5.060e+01  
  7.8600e-01    8.089e-05    3.833e-04    7.581e-06    5.055e+01  
  7.8700e-01    8.152e-05    3.843e-04    7.607e-06    5.051e+01  
  7.8800e-01    8.215e-05    3.853e-04    7.633e-06    5.047e+01  
  7.8900e-01    8.279e-05    3.862e-04    7.659e-06    5.042e+01  
  7.9000e-01    8.342e-05    3.872e-04    7.685e-06    5.038e+01  
  7.9100e-01    8.406e-05    3.882e-04    7.711e-06    5.034e+01  
  7.9200e-01    8.470e-05    3.892e-04    7.737e-06    5.029e+01  
  7.9300e-01    8.534e-05    3.901e-04    7.763e-06    5.025e+01  
  7.9400e-01    8.599e-05    3.911e-04    7.788e-06    5.021e+01  
  7.9500e-01    8.663e-05    3.920e-04    7.814e-06    5.017e+01  
  7.9600e-01    8.728e-05    3.930e-04    7.839e-06    5.013e+01  
  7.9700e-01    8.793e-05    3.940e-04    7.865e-06    5.009e+01  
  7.9800e-01    8.858e-05    3.949e-04    7.890e-06    5.004e+01  
  7.9900e-01    8.923e-05    3.959e-04    7.916e-06    5.000e+01  
  8.0000e-01    8.989e-05    3.968e-04    7.941e-06    4.996e+01  
y
1****** HSPICE -- B-2008.09-SP1 32-BIT (Nov 24 2008) linux ******               
 ******  
 *inputstage

  ******  operating point information tnom=  25.000 temp=  25.000 *****
 ***** operating point status is all       simulation time is     0.     
    node    =voltage      node    =voltage      node    =voltage

 +0:nwd     = 1.021e+00 0:out     = 2.000e+00 0:ref     = 2.000e+00
 +0:vdd     = 3.300e+00 0:vgn     = 1.800e+00 0:vnw     = 5.200e-01
 +0:vss     =   0.     


 maximum nodal capacitance=   3.438E-14         on node     0:vss             

    nodal  capacitance table 

    node    =    cap      node    =    cap      node    =    cap

 +0:nwd     = 1.196e-14 0:out     = 3.617e-15 0:ref     =   0.     
 +0:vdd     =   0.      0:vgn     = 2.208e-15 0:vnw     = 5.365e-15
 +0:vss     = 3.438e-14

 

 ****  voltage sources

 subckt                                                         
 element  0:vd       0:vs       0:vng      0:vn       0:vr      
  volts    3.300e+00    0.       1.800e+00  5.200e-01  2.000e+00
  current -3.300e-06  1.178e-06    0.         0.         0.     
  power    1.089e-05    0.         0.         0.         0.     

     total voltage source power dissipation=  1.089e-05       watts



 **** voltage-controlled voltage sources


 subckt             
 element  0:eo      
  volts    2.000e+00
  current -1.178e-06





 **** mosfets


 subckt                        
 element  0:mcg      0:mnw     
 model    0:nch.3    0:nch.3   
 region       Cutoff     Cutoff
  id       1.178e-06  1.178e-06
  ibs     -4.644e-15 -1.831e-18
  ibd     -5.901e-15 -1.351e-14
  vgs      7.787e-01  5.200e-01
  vds      9.787e-01  1.021e+00
  vbs     -1.021e+00    0.     
  vth      7.912e-01  5.663e-01
  vdsat    6.093e-02  5.069e-02
  vod     -1.256e-02 -4.625e-02
  beta     1.592e-03  3.761e-03
  gam eff  5.532e-01  5.610e-01
  gm       2.804e-05  2.838e-05
  gds      4.937e-07  4.216e-07
  gmb      5.178e-06  7.882e-06
  cdtot    3.617e-15  8.027e-15
  cgtot    2.208e-15  5.365e-15
  cstot    3.938e-15  9.632e-15
  cbtot    7.229e-15  1.752e-14
  cgs      6.333e-16  1.376e-15
  cgd      6.333e-16  1.376e-15




          ***** job concluded
1****** HSPICE -- B-2008.09-SP1 32-BIT (Nov 24 2008) linux ******               
 ******  
 *inputstage

  ******  job statistics summary tnom=  25.000 temp=  25.000 *****

  ******  HSPICE Threads Information  ******
  Command Line Threads Count:                      0
  Available CPU Count:                             8
  Actual Model Evaluation(Load) Threads Count:     1
  Actual Solver Threads Count:                     1


  ******  Circuit Statistics  ******
  # nodes       =      13  # elements   =      10
  # resistors   =       1  # capacitors =       0  # inductors   =       0
  # mutual_inds =       0  # vccs       =       0  # vcvs        =       1
  # cccs        =       0  # ccvs       =       0  # volt_srcs   =       6
  # curr_srcs   =       0  # diodes     =       0  # bjts        =       0
  # jfets       =       0  # mosfets    =       2  # U elements  =       0
  # T elements  =       0  # W elements =       0  # B elements  =       0
  # S elements  =       0  # P elements =       0  # va device   =       0


  ******  Runtime Statistics (seconds)  ******

  analysis           time    # points   tot. iter  conv.iter
  op point           0.00           1           8
  dc sweep           0.03         801        1612
  readin             0.04
  errchk             0.00
  setup              0.00
  output             0.00


           total memory used          209  kbytes
           total cpu time            0.07 seconds
           total elapsed time        0.22 seconds
           job started at     21:46:17 01/22/2016
           job ended   at     21:46:17 01/22/2016


 Init: hspice initialization file: /usr/cad/synopsys/hspice/cur/hspice/hspice.ini
 lic: Release hspice token(s) 
